/*---------------------------------------------------------------------------*\
| =========                 |                                                 |
| \\      /  F ield         | OpenFOAM: The Open Source CFD Toolbox           |
|  \\    /   O peration     | Version:  2206                                  |
|   \\  /    A nd           | Website:  www.openfoam.com                      |
|    \\/     M anipulation  |                                                 |
\*---------------------------------------------------------------------------*/
Build  : _76d719d1-20220624 OPENFOAM=2206 version=2206
Arch   : "LSB;label=32;scalar=64"
Exec   : simpleFoam
Date   : Dec 06 2023
Time   : 08:15:30
Host   : MSI
PID    : 4264
I/O    : uncollated
Case   : /home/baqer/Git-hub-OpenFoam/inter-plus/airFoil2D
nProcs : 1
trapFpe: Floating point exception trapping enabled (FOAM_SIGFPE).
fileModificationChecking : Monitoring run-time modified files using timeStampMaster (fileModificationSkew 5, maxFileModificationPolls 20)
allowSystemOperations : Allowing user-supplied system call operations

// * * * * * * * * * * * * * * * * * * * * * * * * * * * * * * * * * * * * * //
Create time

Create mesh for time = 0


SIMPLE: convergence criteria
    field p	 tolerance 1e-05
    field U	 tolerance 1e-05
    field nuTilda	 tolerance 1e-05

Reading field p

Reading field U

Reading/calculating face flux field phi

Selecting incompressible transport model Newtonian
Selecting turbulence model type RAS
Selecting RAS turbulence model SpalartAllmaras
Selecting patchDistMethod meshWave
RAS
{
    RASModel        SpalartAllmaras;
    turbulence      on;
    printCoeffs     on;
    sigmaNut        0.666667;
    kappa           0.41;
    Cb1             0.1355;
    Cb2             0.622;
    Cw2             0.3;
    Cw3             2;
    Cv1             7.1;
    Cs              0.3;
}

No MRF models present

No finite volume options present

Starting time loop

forceCoeffs forceCoeffs1:
    rho: rhoInf
    Freestream density (rhoInf) set to 1
    Not including porosity effects
    magUInf: 26
    lRef   : 1.42
    Aref   : 0.75
    rhoInf : 1
    Selecting all coefficients
    - Drag force: Cd
    - Drag force front: Cd(f)
    - Drag force rear: Cd(r)
    - Lift force: Cl
    - Lift force front: Cl(f)
    - Lift force rear: Cl(r)
    - Pitch moment: CmPitch
    - Roll moment: CmRoll
    - Yaw moment: CmYaw
    - Side force: Cs
    - Side force front: Cs(f)
    - Side force rear: Cs(r)


momentumError momErr:
turbulenceFields turbulenceFields1: storing fields:
    turbulenceProperties:nut
    turbulenceProperties:nuEff
    turbulenceProperties:k
    turbulenceProperties:R
    turbulenceProperties:I
    turbulenceProperties:L
    turbulenceProperties:devReff
    turbulenceProperties:epsilon

Time = 1

smoothSolver:  Solving for Ux, Initial residual = 1, Final residual = 0.00101556, No Iterations 2
smoothSolver:  Solving for Uy, Initial residual = 1, Final residual = 0.00101562, No Iterations 2
GAMG:  Solving for p, Initial residual = 1, Final residual = 0.0728419, No Iterations 7
time step continuity errors : sum local = 0.000424003, global = -0.000117755, cumulative = -0.000117755
smoothSolver:  Solving for nuTilda, Initial residual = 1, Final residual = 0.0488718, No Iterations 4
ExecutionTime = 0.1 s  ClockTime = 1 s

forceCoeffs forceCoeffs1 write:
    Coefficient	Total	Pressure	Viscous	Internal
    Cd:	2.9091	-2.20603e-05	2.90912	0
    Cd(f):	1.34502	-0.109536	1.45456	0
    Cd(r):	1.56407	0.109514	1.45456	0
    Cl:	2.34598e-16	-5.45626e-21	2.34603e-16	0
    Cl(f):	0.0512165	0.0512169	-3.88386e-07	0
    Cl(r):	-0.0512165	-0.0512169	3.88386e-07	0
    CmPitch:	0.0512165	0.0512169	-3.88386e-07	0
    CmRoll:	-0.109525	-0.109525	7.94425e-08	0
    CmYaw:	-15.9163	-15.9163	-1.04852e-06	0
    Cs:	6.22104	-4.51234e-06	6.22104	0
    Cs(f):	-12.8058	-15.9163	3.11052	0
    Cs(r):	19.0268	15.9163	3.11052	0

    writing force and moment coefficient files.

Time = 2

smoothSolver:  Solving for Ux, Initial residual = 0.316927, Final residual = 0.0168123, No Iterations 4
smoothSolver:  Solving for Uy, Initial residual = 0.563069, Final residual = 0.0164871, No Iterations 4
GAMG:  Solving for p, Initial residual = 0.158142, Final residual = 0.0129129, No Iterations 4
time step continuity errors : sum local = 0.000615855, global = -4.7707e-05, cumulative = -0.000165462
smoothSolver:  Solving for nuTilda, Initial residual = 0.110878, Final residual = 0.00733002, No Iterations 4
ExecutionTime = 0.11 s  ClockTime = 1 s

forceCoeffs forceCoeffs1 write:
    Coefficient	Total	Pressure	Viscous	Internal
    Cd:	2.12141	1.0936e-05	2.1214	0
    Cd(f):	0.979693	-0.0810083	1.0607	0
    Cd(r):	1.14172	0.0810193	1.0607	0
    Cl:	2.35086e-16	-9.1189e-21	2.35095e-16	0
    Cl(f):	0.0373488	0.0373486	1.92535e-07	0
    Cl(r):	-0.0373488	-0.0373486	-1.92535e-07	0
    CmPitch:	0.0373488	0.0373486	1.92535e-07	0
    CmRoll:	-0.0810139	-0.0810138	-7.50031e-08	0
    CmYaw:	-9.13306	-9.13324	0.000177878	0
    Cs:	4.60159	4.26018e-06	4.60158	0
    Cs(f):	-6.83227	-9.13324	2.30097	0
    Cs(r):	11.4339	9.13324	2.30061	0

    writing force and moment coefficient files.

Time = 3

smoothSolver:  Solving for Ux, Initial residual = 0.138729, Final residual = 0.00688969, No Iterations 4
smoothSolver:  Solving for Uy, Initial residual = 0.180004, Final residual = 0.00652015, No Iterations 4
GAMG:  Solving for p, Initial residual = 0.241902, Final residual = 0.0202638, No Iterations 5
time step continuity errors : sum local = 0.000785911, global = 0.00018817, cumulative = 2.27078e-05
smoothSolver:  Solving for nuTilda, Initial residual = 0.0870729, Final residual = 0.005786, No Iterations 4
ExecutionTime = 0.12 s  ClockTime = 1 s

forceCoeffs forceCoeffs1 write:
    Coefficient	Total	Pressure	Viscous	Internal
    Cd:	0.00735021	4.80643e-05	0.00730214	0
    Cd(f):	0.001707	-0.00194359	0.00365059	0
    Cd(r):	0.00564321	0.00199165	0.00365156	0
    Cl:	7.76417e-17	-3.44326e-21	7.76452e-17	0
    Cl(f):	0.000129405	0.000128559	8.46202e-07	0
    Cl(r):	-0.000129405	-0.000128559	-8.46202e-07	0
    CmPitch:	0.000129405	0.000128559	8.46202e-07	0
    CmRoll:	-0.00196811	-0.00196762	-4.86426e-07	0
    CmYaw:	1.84049	1.84005	0.000440037	0
    Cs:	0.111788	2.7629e-05	0.111761	0
    Cs(f):	1.89639	1.84007	0.0563204	0
    Cs(r):	-1.7846	-1.84004	0.0554404	0

    writing force and moment coefficient files.

Time = 4

smoothSolver:  Solving for Ux, Initial residual = 0.0469657, Final residual = 0.0014484, No Iterations 4
smoothSolver:  Solving for Uy, Initial residual = 0.0675951, Final residual = 0.00225251, No Iterations 4
GAMG:  Solving for p, Initial residual = 0.480311, Final residual = 0.0374661, No Iterations 6
time step continuity errors : sum local = 0.00061992, global = 0.000100817, cumulative = 0.000123525
smoothSolver:  Solving for nuTilda, Initial residual = 0.0807253, Final residual = 0.00502717, No Iterations 4
ExecutionTime = 0.14 s  ClockTime = 1 s

forceCoeffs forceCoeffs1 write:
    Coefficient	Total	Pressure	Viscous	Internal
    Cd:	-1.27855	6.58456e-05	-1.27861	0
    Cd(f):	-0.605171	0.0341371	-0.639308	0
    Cd(r):	-0.673378	-0.0340713	-0.639306	0
    Cl:	-1.52511e-16	3.9961e-20	-1.52551e-16	0
    Cl(f):	-0.0225097	-0.0225108	1.15925e-06	0
    Cl(r):	0.0225097	0.0225108	-1.15925e-06	0
    CmPitch:	-0.0225097	-0.0225108	1.15925e-06	0
    CmRoll:	0.0341032	0.0341042	-9.41404e-07	0
    CmYaw:	6.55787	6.55727	0.000593432	0
    Cs:	-1.93706	5.34717e-05	-1.93712	0
    Cs(f):	5.58934	6.5573	-0.967966	0
    Cs(r):	-7.5264	-6.55725	-0.969152	0

    writing force and moment coefficient files.

Time = 5

smoothSolver:  Solving for Ux, Initial residual = 0.0896925, Final residual = 0.00446696, No Iterations 4
smoothSolver:  Solving for Uy, Initial residual = 0.16203, Final residual = 0.00489005, No Iterations 4
GAMG:  Solving for p, Initial residual = 0.240257, Final residual = 0.0147126, No Iterations 5
time step continuity errors : sum local = 0.000526196, global = -0.000109639, cumulative = 1.38864e-05
smoothSolver:  Solving for nuTilda, Initial residual = 0.0730201, Final residual = 0.00356863, No Iterations 4
bounding nuTilda, min: -4.87828e-06 max: 0.0858173 average: 0.000115859
ExecutionTime = 0.15 s  ClockTime = 1 s

forceCoeffs forceCoeffs1 write:
    Coefficient	Total	Pressure	Viscous	Internal
    Cd:	-1.01606	8.47034e-05	-1.01614	0
    Cd(f):	-0.501098	0.00697537	-0.508074	0
    Cd(r):	-0.514962	-0.00689067	-0.508071	0
    Cl:	-3.08194e-16	1.25264e-19	-3.08319e-16	0
    Cl(f):	-0.0178884	-0.0178899	1.49126e-06	0
    Cl(r):	0.0178884	0.0178899	-1.49126e-06	0
    CmPitch:	-0.0178884	-0.0178899	1.49126e-06	0
    CmRoll:	0.00693171	0.00693302	-1.30668e-06	0
    CmYaw:	4.9945	4.99387	0.00062265	0
    Cs:	-0.393721	7.42195e-05	-0.393796	0
    Cs(f):	4.79763	4.99391	-0.196275	0
    Cs(r):	-5.19136	-4.99384	-0.19752	0

    writing force and moment coefficient files.

Time = 6

smoothSolver:  Solving for Ux, Initial residual = 0.102995, Final residual = 0.00494924, No Iterations 4
smoothSolver:  Solving for Uy, Initial residual = 0.194992, Final residual = 0.00761849, No Iterations 4
GAMG:  Solving for p, Initial residual = 0.293028, Final residual = 0.0146412, No Iterations 5
time step continuity errors : sum local = 0.000421584, global = -1.57852e-06, cumulative = 1.23079e-05
smoothSolver:  Solving for nuTilda, Initial residual = 0.0555981, Final residual = 0.00175612, No Iterations 4
bounding nuTilda, min: -0.000128257 max: 0.118192 average: 0.000229354
ExecutionTime = 0.16 s  ClockTime = 1 s

forceCoeffs forceCoeffs1 write:
    Coefficient	Total	Pressure	Viscous	Internal
    Cd:	0.0412437	0.000135771	0.0411079	0
    Cd(f):	-0.0156569	-0.0362093	0.0205524	0
    Cd(r):	0.0569006	0.0363451	0.0205555	0
    Cl:	-2.9943e-16	3.06743e-19	-2.99737e-16	0
    Cl(f):	0.000726121	0.000723731	2.39033e-06	0
    Cl(r):	-0.000726121	-0.000723731	-2.39033e-06	0
    CmPitch:	0.000726121	0.000723731	2.39033e-06	0
    CmRoll:	-0.0362788	-0.0362772	-1.53423e-06	0
    CmYaw:	-0.861774	-0.862485	0.000711207	0
    Cs:	2.06063	8.7144e-05	2.06055	0
    Cs(f):	0.168543	-0.862441	1.03098	0
    Cs(r):	1.89209	0.862529	1.02956	0

    writing force and moment coefficient files.

Time = 7

smoothSolver:  Solving for Ux, Initial residual = 0.0703979, Final residual = 0.00691039, No Iterations 2
smoothSolver:  Solving for Uy, Initial residual = 0.139054, Final residual = 0.0102713, No Iterations 2
GAMG:  Solving for p, Initial residual = 0.522252, Final residual = 0.0479398, No Iterations 5
time step continuity errors : sum local = 0.000762495, global = 0.000148384, cumulative = 0.000160692
smoothSolver:  Solving for nuTilda, Initial residual = 0.0519265, Final residual = 0.00479113, No Iterations 2
bounding nuTilda, min: -0.00240725 max: 0.129888 average: 0.000343905
ExecutionTime = 0.17 s  ClockTime = 1 s

forceCoeffs forceCoeffs1 write:
    Coefficient	Total	Pressure	Viscous	Internal
    Cd:	0.769463	0.000326102	0.769137	0
    Cd(f):	0.332096	-0.052472	0.384568	0
    Cd(r):	0.437368	0.0527981	0.38457	0
    Cl:	-1.94434e-16	7.461e-19	-1.9518e-16	0
    Cl(f):	0.0135469	0.0135412	5.74122e-06	0
    Cl(r):	-0.0135469	-0.0135412	-5.74122e-06	0
    CmPitch:	0.0135469	0.0135412	5.74122e-06	0
    CmRoll:	-0.0526362	-0.052635	-1.13329e-06	0
    CmYaw:	-7.07431	-7.07493	0.000618614	0
    Cs:	2.98973	6.4371e-05	2.98967	0
    Cs(f):	-5.57944	-7.0749	1.49545	0
    Cs(r):	8.56918	7.07496	1.49422	0

    writing force and moment coefficient files.

Time = 8

smoothSolver:  Solving for Ux, Initial residual = 0.079649, Final residual = 0.00285309, No Iterations 4
smoothSolver:  Solving for Uy, Initial residual = 0.120577, Final residual = 0.00849414, No Iterations 2
GAMG:  Solving for p, Initial residual = 0.301365, Final residual = 0.0144598, No Iterations 5
time step continuity errors : sum local = 0.000404917, global = 6.72794e-05, cumulative = 0.000227971
smoothSolver:  Solving for nuTilda, Initial residual = 0.0330161, Final residual = 0.000421798, No Iterations 4
bounding nuTilda, min: -0.0121715 max: 0.175418 average: 0.000514497
ExecutionTime = 0.19 s  ClockTime = 1 s

forceCoeffs forceCoeffs1 write:
    Coefficient	Total	Pressure	Viscous	Internal
    Cd:	0.828347	0.000787108	0.82756	0
    Cd(f):	0.376831	-0.036947	0.413778	0
    Cd(r):	0.451516	0.0377341	0.413781	0
    Cl:	-5.09105e-17	8.88019e-20	-5.09993e-17	0
    Cl(f):	0.0145836	0.0145697	1.38575e-05	0
    Cl(r):	-0.0145836	-0.0145697	-1.38575e-05	0
    CmPitch:	0.0145836	0.0145697	1.38575e-05	0
    CmRoll:	-0.0373421	-0.0373405	-1.59573e-06	0
    CmYaw:	-10.6556	-10.6562	0.000563197	0
    Cs:	2.12103	9.06375e-05	2.12094	0
    Cs(f):	-9.59507	-10.6561	1.06103	0
    Cs(r):	11.7161	10.6562	1.05991	0

    writing force and moment coefficient files.

Time = 9

smoothSolver:  Solving for Ux, Initial residual = 0.0641769, Final residual = 0.0024858, No Iterations 4
smoothSolver:  Solving for Uy, Initial residual = 0.0848046, Final residual = 0.00234026, No Iterations 4
GAMG:  Solving for p, Initial residual = 0.349335, Final residual = 0.021209, No Iterations 5
time step continuity errors : sum local = 0.000460499, global = -2.04736e-05, cumulative = 0.000207498
smoothSolver:  Solving for nuTilda, Initial residual = 0.0238325, Final residual = 0.00201548, No Iterations 2
bounding nuTilda, min: -0.0195538 max: 0.18769 average: 0.000681956
ExecutionTime = 0.2 s  ClockTime = 1 s

forceCoeffs forceCoeffs1 write:
    Coefficient	Total	Pressure	Viscous	Internal
    Cd:	0.355942	0.0018619	0.35408	0
    Cd(f):	0.164311	-0.0127294	0.177041	0
    Cd(r):	0.191631	0.0145913	0.17704	0
    Cl:	4.11082e-18	-2.64801e-19	4.37562e-18	0
    Cl(f):	0.00626659	0.00623381	3.27799e-05	0
    Cl(r):	-0.00626659	-0.00623381	-3.27799e-05	0
    CmPitch:	0.00626659	0.00623381	3.27799e-05	0
    CmRoll:	-0.0136599	-0.0136604	4.81351e-07	0
    CmYaw:	-9.93939	-9.93899	-0.000402926	0
    Cs:	0.775883	-2.73408e-05	0.77591	0
    Cs(f):	-9.55145	-9.93901	0.387552	0
    Cs(r):	10.3273	9.93898	0.388358	0

    writing force and moment coefficient files.

Time = 10

smoothSolver:  Solving for Ux, Initial residual = 0.0453389, Final residual = 0.00426657, No Iterations 2
smoothSolver:  Solving for Uy, Initial residual = 0.0717854, Final residual = 0.00646916, No Iterations 2
GAMG:  Solving for p, Initial residual = 0.472237, Final residual = 0.0458362, No Iterations 5
time step continuity errors : sum local = 0.000659646, global = -0.000114007, cumulative = 9.3491e-05
smoothSolver:  Solving for nuTilda, Initial residual = 0.0209058, Final residual = 0.00141468, No Iterations 2
bounding nuTilda, min: -0.0772744 max: 0.200897 average: 0.000817351
ExecutionTime = 0.21 s  ClockTime = 1 s

forceCoeffs forceCoeffs1 write:
    Coefficient	Total	Pressure	Viscous	Internal
    Cd:	-0.117221	0.00473663	-0.121958	0
    Cd(f):	-0.0620518	-0.00106959	-0.0609822	0
    Cd(r):	-0.0551694	0.00580622	-0.0609757	0
    Cl:	-3.68368e-17	-1.19811e-19	-3.6717e-17	0
    Cl(f):	-0.00206375	-0.00214715	8.33914e-05	0
    Cl(r):	0.00206375	0.00214715	-8.33914e-05	0
    CmPitch:	-0.00206375	-0.00214715	8.33914e-05	0
    CmRoll:	-0.00344117	-0.00343791	-3.26544e-06	0
    CmYaw:	-6.16744	-6.17184	0.00440134	0
    Cs:	0.195459	0.000185477	0.195273	0
    Cs(f):	-6.06971	-6.17175	0.102038	0
    Cs(r):	6.26517	6.17193	0.0932353	0

    writing force and moment coefficient files.

Time = 11

smoothSolver:  Solving for Ux, Initial residual = 0.0513019, Final residual = 0.00159508, No Iterations 4
smoothSolver:  Solving for Uy, Initial residual = 0.0832718, Final residual = 0.00680218, No Iterations 2
GAMG:  Solving for p, Initial residual = 0.290937, Final residual = 0.0192963, No Iterations 5
time step continuity errors : sum local = 0.000461472, global = 3.20957e-05, cumulative = 0.000125587
smoothSolver:  Solving for nuTilda, Initial residual = 0.0223469, Final residual = 0.00148884, No Iterations 2
bounding nuTilda, min: -0.00183391 max: 0.251765 average: 0.00100445
ExecutionTime = 0.22 s  ClockTime = 1 s

forceCoeffs forceCoeffs1 write:
    Coefficient	Total	Pressure	Viscous	Internal
    Cd:	-0.317747	0.00600629	-0.323753	0
    Cd(f):	-0.169314	-0.00741742	-0.161897	0
    Cd(r):	-0.148433	0.0134237	-0.161857	0
    Cl:	-1.18155e-16	-2.1808e-19	-1.17937e-16	0
    Cl(f):	-0.00559414	-0.00569988	0.000105745	0
    Cl(r):	0.00559414	0.00569988	-0.000105745	0
    CmPitch:	-0.00559414	-0.00569988	0.000105745	0
    CmRoll:	-0.0104406	-0.0104206	-2.00643e-05	0
    CmYaw:	-3.20718	-3.21721	0.0100225	0
    Cs:	0.593028	0.00113965	0.591888	0
    Cs(f):	-2.91067	-3.21664	0.305967	0
    Cs(r):	3.5037	3.21778	0.285922	0

    writing force and moment coefficient files.

Time = 12

smoothSolver:  Solving for Ux, Initial residual = 0.0552833, Final residual = 0.00216053, No Iterations 4
smoothSolver:  Solving for Uy, Initial residual = 0.0796802, Final residual = 0.00241056, No Iterations 4
GAMG:  Solving for p, Initial residual = 0.304191, Final residual = 0.0261885, No Iterations 5
time step continuity errors : sum local = 0.000548038, global = -0.000129252, cumulative = -3.66577e-06
smoothSolver:  Solving for nuTilda, Initial residual = 0.0251775, Final residual = 0.00161372, No Iterations 2
bounding nuTilda, min: -0.00913578 max: 0.27243 average: 0.00117047
ExecutionTime = 0.23 s  ClockTime = 1 s

forceCoeffs forceCoeffs1 write:
    Coefficient	Total	Pressure	Viscous	Internal
    Cd:	-0.173045	0.00541969	-0.178465	0
    Cd(f):	-0.111523	-0.0222663	-0.0892565	0
    Cd(r):	-0.0615221	0.027686	-0.0892082	0
    Cl:	-1.66102e-16	9.8314e-19	-1.67085e-16	0
    Cl(f):	-0.00304657	-0.00314198	9.54172e-05	0
    Cl(r):	0.00304657	0.00314198	-9.54172e-05	0
    CmPitch:	-0.00304657	-0.00314198	9.54172e-05	0
    CmRoll:	-0.0250003	-0.0249762	-2.41363e-05	0
    CmYaw:	-3.20316	-3.21343	0.0102784	0
    Cs:	1.42002	0.00137094	1.41865	0
    Cs(f):	-2.49315	-3.21275	0.719602	0
    Cs(r):	3.91316	3.21412	0.699045	0

    writing force and moment coefficient files.

Time = 13

smoothSolver:  Solving for Ux, Initial residual = 0.0482974, Final residual = 0.00143264, No Iterations 4
smoothSolver:  Solving for Uy, Initial residual = 0.0680716, Final residual = 0.00625189, No Iterations 2
GAMG:  Solving for p, Initial residual = 0.595128, Final residual = 0.057648, No Iterations 5
time step continuity errors : sum local = 0.00059095, global = 0.000156746, cumulative = 0.00015308
smoothSolver:  Solving for nuTilda, Initial residual = 0.0230162, Final residual = 0.00168047, No Iterations 2
bounding nuTilda, min: -0.00776704 max: 0.271451 average: 0.00135494
ExecutionTime = 0.25 s  ClockTime = 1 s

forceCoeffs forceCoeffs1 write:
    Coefficient	Total	Pressure	Viscous	Internal
    Cd:	0.107947	0.00527688	0.10267	0
    Cd(f):	0.0208483	-0.0304642	0.0513125	0
    Cd(r):	0.0870986	0.0357411	0.0513575	0
    Cl:	-1.59006e-16	1.24371e-18	-1.6025e-16	0
    Cl(f):	0.00190047	0.00180757	9.29028e-05	0
    Cl(r):	-0.00190047	-0.00180757	-9.29028e-05	0
    CmPitch:	0.00190047	0.00180757	9.29028e-05	0
    CmRoll:	-0.0331251	-0.0331026	-2.2497e-05	0
    CmYaw:	-5.6612	-5.6708	0.0095961	0
    Cs:	1.88151	0.00127783	1.88023	0
    Cs(f):	-4.72045	-5.67016	0.949711	0
    Cs(r):	6.60196	5.67144	0.930519	0

    writing force and moment coefficient files.

Time = 14

smoothSolver:  Solving for Ux, Initial residual = 0.0466688, Final residual = 0.0042563, No Iterations 2
smoothSolver:  Solving for Uy, Initial residual = 0.065991, Final residual = 0.00381738, No Iterations 2
GAMG:  Solving for p, Initial residual = 0.372163, Final residual = 0.0342041, No Iterations 5
time step continuity errors : sum local = 0.000558029, global = -5.36005e-05, cumulative = 9.948e-05
smoothSolver:  Solving for nuTilda, Initial residual = 0.0213786, Final residual = 0.00164366, No Iterations 2
bounding nuTilda, min: -0.0174337 max: 0.243222 average: 0.00154332
ExecutionTime = 0.26 s  ClockTime = 1 s

forceCoeffs forceCoeffs1 write:
    Coefficient	Total	Pressure	Viscous	Internal
    Cd:	0.293882	0.00542819	0.288454	0
    Cd(f):	0.115127	-0.0290804	0.144207	0
    Cd(r):	0.178756	0.0345086	0.144247	0
    Cl:	-1.17931e-16	6.34272e-19	-1.18565e-16	0
    Cl(f):	0.00517398	0.00507842	9.55667e-05	0
    Cl(r):	-0.00517398	-0.00507842	-9.55667e-05	0
    CmPitch:	0.00517398	0.00507842	9.55667e-05	0
    CmRoll:	-0.0318146	-0.0317945	-2.00845e-05	0
    CmYaw:	-8.38854	-8.39729	0.00874505	0
    Cs:	1.80707	0.0011408	1.80593	0
    Cs(f):	-7.48501	-8.39672	0.911709	0
    Cs(r):	9.29208	8.39786	0.894218	0

    writing force and moment coefficient files.

Time = 15

smoothSolver:  Solving for Ux, Initial residual = 0.0477276, Final residual = 0.00156937, No Iterations 4
smoothSolver:  Solving for Uy, Initial residual = 0.0615652, Final residual = 0.00424839, No Iterations 2
GAMG:  Solving for p, Initial residual = 0.343806, Final residual = 0.0274842, No Iterations 6
time step continuity errors : sum local = 0.000454149, global = -8.98333e-05, cumulative = 9.64671e-06
smoothSolver:  Solving for nuTilda, Initial residual = 0.0216527, Final residual = 0.00172644, No Iterations 2
bounding nuTilda, min: -0.0265841 max: 0.245389 average: 0.00172541
ExecutionTime = 0.27 s  ClockTime = 1 s

forceCoeffs forceCoeffs1 write:
    Coefficient	Total	Pressure	Viscous	Internal
    Cd:	0.275065	0.00578022	0.269285	0
    Cd(f):	0.112783	-0.0218405	0.134624	0
    Cd(r):	0.162282	0.0276207	0.134661	0
    Cl:	-7.3743e-17	1.14581e-18	-7.48888e-17	0
    Cl(f):	0.0048427	0.00474093	0.000101764	0
    Cl(r):	-0.0048427	-0.00474093	-0.000101764	0
    CmPitch:	0.0048427	0.00474093	0.000101764	0
    CmRoll:	-0.0247492	-0.0247306	-1.85952e-05	0
    CmYaw:	-9.41822	-9.42557	0.00735357	0
    Cs:	1.40575	0.00105621	1.4047	0
    Cs(f):	-8.71534	-9.42505	0.709703	0
    Cs(r):	10.1211	9.4261	0.694995	0

    writing force and moment coefficient files.

Time = 16

smoothSolver:  Solving for Ux, Initial residual = 0.0408213, Final residual = 0.00384187, No Iterations 2
smoothSolver:  Solving for Uy, Initial residual = 0.0541364, Final residual = 0.00457024, No Iterations 2
GAMG:  Solving for p, Initial residual = 0.572718, Final residual = 0.0397552, No Iterations 6
time step continuity errors : sum local = 0.000372178, global = -6.2702e-05, cumulative = -5.30553e-05
smoothSolver:  Solving for nuTilda, Initial residual = 0.0221737, Final residual = 0.00184973, No Iterations 2
bounding nuTilda, min: -0.0250445 max: 0.240743 average: 0.00190734
ExecutionTime = 0.28 s  ClockTime = 1 s

forceCoeffs forceCoeffs1 write:
    Coefficient	Total	Pressure	Viscous	Internal
    Cd:	0.118492	0.00593442	0.112558	0
    Cd(f):	0.0406389	-0.0156205	0.0562593	0
    Cd(r):	0.0778535	0.0215549	0.0562986	0
    Cl:	-6.75749e-17	1.50071e-18	-6.90757e-17	0
    Cl(f):	0.00208613	0.00198165	0.000104479	0
    Cl(r):	-0.00208613	-0.00198165	-0.000104479	0
    CmPitch:	0.00208613	0.00198165	0.000104479	0
    CmRoll:	-0.0186073	-0.0185877	-1.96192e-05	0
    CmYaw:	-8.16336	-8.16954	0.00618824	0
    Cs:	1.05689	0.00111437	1.05578	0
    Cs(f):	-7.63491	-8.16899	0.534078	0
    Cs(r):	8.6918	8.1701	0.521702	0

    writing force and moment coefficient files.

Time = 17

smoothSolver:  Solving for Ux, Initial residual = 0.0387887, Final residual = 0.00335403, No Iterations 2
smoothSolver:  Solving for Uy, Initial residual = 0.0570934, Final residual = 0.00481117, No Iterations 2
GAMG:  Solving for p, Initial residual = 0.335346, Final residual = 0.0312748, No Iterations 4
time step continuity errors : sum local = 0.00048058, global = -6.06715e-05, cumulative = -0.000113727
smoothSolver:  Solving for nuTilda, Initial residual = 0.0215996, Final residual = 0.00190148, No Iterations 2
bounding nuTilda, min: -0.0118293 max: 0.245362 average: 0.00212412
ExecutionTime = 0.29 s  ClockTime = 1 s

forceCoeffs forceCoeffs1 write:
    Coefficient	Total	Pressure	Viscous	Internal
    Cd:	-0.0292015	0.00594096	-0.0351425	0
    Cd(f):	-0.0323023	-0.014711	-0.0175914	0
    Cd(r):	0.0031008	0.0206519	-0.0175511	0
    Cl:	-9.11401e-17	1.33638e-18	-9.24765e-17	0
    Cl(f):	-0.000514111	-0.000618705	0.000104594	0
    Cl(r):	0.000514111	0.000618705	-0.000104594	0
    CmPitch:	-0.000514111	-0.000618705	0.000104594	0
    CmRoll:	-0.0177016	-0.0176814	-2.01151e-05	0
    CmYaw:	-6.1315	-6.13641	0.00490773	0
    Cs:	1.00545	0.00114254	1.00431	0
    Cs(f):	-5.62878	-6.13584	0.507061	0
    Cs(r):	6.63422	6.13698	0.497245	0

    writing force and moment coefficient files.

Time = 18

smoothSolver:  Solving for Ux, Initial residual = 0.0426474, Final residual = 0.00137669, No Iterations 4
smoothSolver:  Solving for Uy, Initial residual = 0.0584524, Final residual = 0.00544715, No Iterations 2
GAMG:  Solving for p, Initial residual = 0.290806, Final residual = 0.0200833, No Iterations 6
time step continuity errors : sum local = 0.000344693, global = -4.89247e-05, cumulative = -0.000162652
smoothSolver:  Solving for nuTilda, Initial residual = 0.022287, Final residual = 0.00199595, No Iterations 2
bounding nuTilda, min: -0.00524515 max: 0.287359 average: 0.00233669
ExecutionTime = 0.31 s  ClockTime = 1 s

forceCoeffs forceCoeffs1 write:
    Coefficient	Total	Pressure	Viscous	Internal
    Cd:	-0.0949953	0.00593217	-0.100927	0
    Cd(f):	-0.0682267	-0.0177435	-0.0504832	0
    Cd(r):	-0.0267686	0.0236756	-0.0504443	0
    Cl:	-1.22515e-16	1.88147e-18	-1.24397e-16	0
    Cl(f):	-0.00167245	-0.00177689	0.00010444	0
    Cl(r):	0.00167245	0.00177689	-0.00010444	0
    CmPitch:	-0.00167245	-0.00177689	0.00010444	0
    CmRoll:	-0.020729	-0.0207095	-1.94673e-05	0
    CmYaw:	-4.63089	-4.6349	0.00401465	0
    Cs:	1.17741	0.00110574	1.1763	0
    Cs(f):	-4.04218	-4.63435	0.592166	0
    Cs(r):	5.21959	4.63545	0.584136	0

    writing force and moment coefficient files.

Time = 19

smoothSolver:  Solving for Ux, Initial residual = 0.0407883, Final residual = 0.00142645, No Iterations 4
smoothSolver:  Solving for Uy, Initial residual = 0.0513209, Final residual = 0.00160299, No Iterations 4
GAMG:  Solving for p, Initial residual = 0.374124, Final residual = 0.0252216, No Iterations 6
time step continuity errors : sum local = 0.000339903, global = -3.63462e-05, cumulative = -0.000198998
smoothSolver:  Solving for nuTilda, Initial residual = 0.0220476, Final residual = 0.00210799, No Iterations 2
bounding nuTilda, min: -0.0185848 max: 0.300579 average: 0.00256083
ExecutionTime = 0.32 s  ClockTime = 1 s

forceCoeffs forceCoeffs1 write:
    Coefficient	Total	Pressure	Viscous	Internal
    Cd:	-0.0316788	0.00584589	-0.0375247	0
    Cd(f):	-0.0409067	-0.0221271	-0.0187795	0
    Cd(r):	0.00922787	0.027973	-0.0187452	0
    Cl:	-1.34351e-16	2.20158e-18	-1.36552e-16	0
    Cl(f):	-0.000557726	-0.000660646	0.000102921	0
    Cl(r):	0.000557726	0.000660646	-0.000102921	0
    CmPitch:	-0.000557726	-0.000660646	0.000102921	0
    CmRoll:	-0.0250673	-0.0250501	-1.71956e-05	0
    CmYaw:	-4.66178	-4.66493	0.00315802	0
    Cs:	1.42382	0.00097671	1.42284	0
    Cs(f):	-3.94987	-4.66445	0.71458	0
    Cs(r):	5.37369	4.66542	0.708264	0

    writing force and moment coefficient files.

Time = 20

smoothSolver:  Solving for Ux, Initial residual = 0.0376753, Final residual = 0.00313216, No Iterations 2
smoothSolver:  Solving for Uy, Initial residual = 0.0509116, Final residual = 0.0041767, No Iterations 2
GAMG:  Solving for p, Initial residual = 0.540017, Final residual = 0.0442917, No Iterations 5
time step continuity errors : sum local = 0.000400536, global = 1.58588e-05, cumulative = -0.000183139
smoothSolver:  Solving for nuTilda, Initial residual = 0.0215683, Final residual = 0.000686804, No Iterations 4
bounding nuTilda, min: -0.0123249 max: 0.294119 average: 0.0028933
ExecutionTime = 0.33 s  ClockTime = 1 s

forceCoeffs forceCoeffs1 write:
    Coefficient	Total	Pressure	Viscous	Internal
    Cd:	0.067795	0.00601802	0.0617769	0
    Cd(f):	0.00661182	-0.024262	0.0308738	0
    Cd(r):	0.0611832	0.03028	0.0309032	0
    Cl:	-1.20505e-16	1.85677e-18	-1.22362e-16	0
    Cl(f):	0.00119357	0.00108762	0.000105951	0
    Cl(r):	-0.00119357	-0.00108762	-0.000105951	0
    CmPitch:	0.00119357	0.00108762	0.000105951	0
    CmRoll:	-0.0272857	-0.027271	-1.46772e-05	0
    CmYaw:	-5.86511	-5.86744	0.00233171	0
    Cs:	1.54983	0.000833663	1.54899	0
    Cs(f):	-5.09019	-5.86702	0.776828	0
    Cs(r):	6.64002	5.86785	0.772164	0

    writing force and moment coefficient files.

Time = 21

smoothSolver:  Solving for Ux, Initial residual = 0.0369419, Final residual = 0.00332424, No Iterations 2
smoothSolver:  Solving for Uy, Initial residual = 0.0527149, Final residual = 0.00359341, No Iterations 2
GAMG:  Solving for p, Initial residual = 0.392614, Final residual = 0.034195, No Iterations 5
time step continuity errors : sum local = 0.000403668, global = 3.99021e-05, cumulative = -0.000143237
smoothSolver:  Solving for nuTilda, Initial residual = 0.0212077, Final residual = 0.00068038, No Iterations 4
bounding nuTilda, min: -0.00568009 max: 0.346588 average: 0.00329488
ExecutionTime = 0.34 s  ClockTime = 1 s

forceCoeffs forceCoeffs1 write:
    Coefficient	Total	Pressure	Viscous	Internal
    Cd:	0.13882	0.00599118	0.132829	0
    Cd(f):	0.0421939	-0.0242067	0.0664005	0
    Cd(r):	0.096626	0.0301979	0.0664282	0
    Cl:	-9.66858e-17	1.3055e-18	-9.79913e-17	0
    Cl(f):	0.00244401	0.00233853	0.000105479	0
    Cl(r):	-0.00244401	-0.00233853	-0.000105479	0
    CmPitch:	0.00244401	0.00233853	0.000105479	0
    CmRoll:	-0.0272161	-0.0272023	-1.38121e-05	0
    CmYaw:	-6.92684	-6.92915	0.00231891	0
    Cs:	1.54587	0.000784525	1.54509	0
    Cs(f):	-6.1539	-6.92876	0.774863	0
    Cs(r):	7.69977	6.92955	0.770226	0

    writing force and moment coefficient files.

Time = 22

smoothSolver:  Solving for Ux, Initial residual = 0.0355647, Final residual = 0.00116203, No Iterations 4
smoothSolver:  Solving for Uy, Initial residual = 0.05098, Final residual = 0.00394308, No Iterations 2
GAMG:  Solving for p, Initial residual = 0.397117, Final residual = 0.0294139, No Iterations 6
time step continuity errors : sum local = 0.000345059, global = -1.89403e-05, cumulative = -0.000162177
smoothSolver:  Solving for nuTilda, Initial residual = 0.0214196, Final residual = 0.000690254, No Iterations 4
bounding nuTilda, min: -0.0160077 max: 0.391076 average: 0.00373745
ExecutionTime = 0.36 s  ClockTime = 1 s

forceCoeffs forceCoeffs1 write:
    Coefficient	Total	Pressure	Viscous	Internal
    Cd:	0.148149	0.00585534	0.142293	0
    Cd(f):	0.0496718	-0.0214589	0.0711307	0
    Cd(r):	0.0984768	0.0273143	0.0711625	0
    Cl:	-6.43996e-17	8.72922e-19	-6.52725e-17	0
    Cl(f):	0.00260825	0.00250516	0.000103087	0
    Cl(r):	-0.00260825	-0.00250516	-0.000103087	0
    CmPitch:	0.00260825	0.00250516	0.000103087	0
    CmRoll:	-0.0244025	-0.0243866	-1.59054e-05	0
    CmYaw:	-6.63958	-6.64235	0.00276418	0
    Cs:	1.38606	0.000903425	1.38516	0
    Cs(f):	-5.94655	-6.6419	0.695344	0
    Cs(r):	7.33262	6.6428	0.689816	0

    writing force and moment coefficient files.

Time = 23

smoothSolver:  Solving for Ux, Initial residual = 0.0320582, Final residual = 0.00305527, No Iterations 2
smoothSolver:  Solving for Uy, Initial residual = 0.0451076, Final residual = 0.00420117, No Iterations 2
GAMG:  Solving for p, Initial residual = 0.530759, Final residual = 0.0507561, No Iterations 5
time step continuity errors : sum local = 0.000413365, global = 4.11811e-05, cumulative = -0.000120996
smoothSolver:  Solving for nuTilda, Initial residual = 0.021421, Final residual = 0.000653667, No Iterations 4
bounding nuTilda, min: -0.00974133 max: 0.405129 average: 0.00427224
ExecutionTime = 0.37 s  ClockTime = 1 s

forceCoeffs forceCoeffs1 write:
    Coefficient	Total	Pressure	Viscous	Internal
    Cd:	0.0934392	0.00602267	0.0874165	0
    Cd(f):	0.0247936	-0.0188969	0.0436906	0
    Cd(r):	0.0686455	0.0249196	0.0437259	0
    Cl:	-3.91039e-17	-2.53714e-19	-3.88502e-17	0
    Cl(f):	0.00164506	0.00153902	0.000106033	0
    Cl(r):	-0.00164506	-0.00153902	-0.000106033	0
    CmPitch:	0.00164506	0.00153902	0.000106033	0
    CmRoll:	-0.021926	-0.0219083	-1.76842e-05	0
    CmYaw:	-5.38212	-5.38462	0.00249522	0
    Cs:	1.24539	0.00100446	1.24439	0
    Cs(f):	-4.75942	-5.38411	0.62469	0
    Cs(r):	6.00482	5.38512	0.6197	0

    writing force and moment coefficient files.

Time = 24

smoothSolver:  Solving for Ux, Initial residual = 0.0313469, Final residual = 0.00266698, No Iterations 2
smoothSolver:  Solving for Uy, Initial residual = 0.0471528, Final residual = 0.0042263, No Iterations 2
GAMG:  Solving for p, Initial residual = 0.361582, Final residual = 0.0350792, No Iterations 5
time step continuity errors : sum local = 0.000399127, global = -6.82122e-06, cumulative = -0.000127817
smoothSolver:  Solving for nuTilda, Initial residual = 0.0212807, Final residual = 0.000630481, No Iterations 4
bounding nuTilda, min: -0.00448369 max: 0.457497 average: 0.00489158
ExecutionTime = 0.38 s  ClockTime = 1 s

forceCoeffs forceCoeffs1 write:
    Coefficient	Total	Pressure	Viscous	Internal
    Cd:	0.0317042	0.00599832	0.0257058	0
    Cd(f):	-0.00637966	-0.0192134	0.0128338	0
    Cd(r):	0.0380838	0.0252117	0.0128721	0
    Cl:	-2.01098e-17	-2.10225e-19	-1.98996e-17	0
    Cl(f):	0.000558172	0.000452568	0.000105604	0
    Cl(r):	-0.000558172	-0.000452568	-0.000105604	0
    CmPitch:	0.000558172	0.000452568	0.000105604	0
    CmRoll:	-0.0222317	-0.0222126	-1.91529e-05	0
    CmYaw:	-4.21418	-4.21652	0.00234761	0
    Cs:	1.26276	0.00108788	1.26167	0
    Cs(f):	-3.5828	-4.21598	0.633185	0
    Cs(r):	4.84556	4.21707	0.62849	0

    writing force and moment coefficient files.

Time = 25

smoothSolver:  Solving for Ux, Initial residual = 0.0331828, Final residual = 0.000988561, No Iterations 4
smoothSolver:  Solving for Uy, Initial residual = 0.0479806, Final residual = 0.00425371, No Iterations 2
GAMG:  Solving for p, Initial residual = 0.318049, Final residual = 0.0250121, No Iterations 6
time step continuity errors : sum local = 0.000326136, global = -1.3345e-05, cumulative = -0.000141162
smoothSolver:  Solving for nuTilda, Initial residual = 0.0214803, Final residual = 0.000651815, No Iterations 4
bounding nuTilda, min: -0.0115637 max: 0.505292 average: 0.00558178
ExecutionTime = 0.39 s  ClockTime = 1 s

forceCoeffs forceCoeffs1 write:
    Coefficient	Total	Pressure	Viscous	Internal
    Cd:	0.00479726	0.0062607	-0.00146344	0
    Cd(f):	-0.021767	-0.0210169	-0.000750067	0
    Cd(r):	0.0265642	0.0272776	-0.000713371	0
    Cl:	-2.91081e-18	1.65895e-19	-3.07671e-18	0
    Cl(f):	8.44588e-05	-2.57648e-05	0.000110224	0
    Cl(r):	-8.44588e-05	2.57648e-05	-0.000110224	0
    CmPitch:	8.44588e-05	-2.57648e-05	0.000110224	0
    CmRoll:	-0.0241656	-0.0241473	-1.8348e-05	0
    CmYaw:	-3.61851	-3.61988	0.00136688	0
    Cs:	1.37261	0.00104217	1.37156	0
    Cs(f):	-2.93221	-3.61936	0.687149	0
    Cs(r):	4.30482	3.6204	0.684415	0

    writing force and moment coefficient files.

Time = 26

smoothSolver:  Solving for Ux, Initial residual = 0.0317734, Final residual = 0.00317539, No Iterations 2
smoothSolver:  Solving for Uy, Initial residual = 0.0451294, Final residual = 0.00425277, No Iterations 2
GAMG:  Solving for p, Initial residual = 0.338977, Final residual = 0.0286994, No Iterations 6
time step continuity errors : sum local = 0.000340409, global = -4.59551e-07, cumulative = -0.000141622
smoothSolver:  Solving for nuTilda, Initial residual = 0.0212272, Final residual = 0.000625605, No Iterations 4
bounding nuTilda, min: -0.00661546 max: 0.518716 average: 0.00636215
ExecutionTime = 0.41 s  ClockTime = 1 s

forceCoeffs forceCoeffs1 write:
    Coefficient	Total	Pressure	Viscous	Internal
    Cd:	0.030291	0.00652067	0.0237704	0
    Cd(f):	-0.0107917	-0.0226605	0.0118688	0
    Cd(r):	0.0410827	0.0291812	0.0119016	0
    Cl:	1.33871e-17	2.1962e-19	1.31674e-17	0
    Cl(f):	0.000533293	0.000418493	0.000114801	0
    Cl(r):	-0.000533293	-0.000418493	-0.000114801	0
    CmPitch:	0.000533293	0.000418493	0.000114801	0
    CmRoll:	-0.0259372	-0.0259208	-1.63776e-05	0
    CmYaw:	-3.63231	-3.63271	0.000395565	0
    Cs:	1.47323	0.000930247	1.4723	0
    Cs(f):	-2.8957	-3.63224	0.736547	0
    Cs(r):	4.36893	3.63317	0.735756	0

    writing force and moment coefficient files.

Time = 27

smoothSolver:  Solving for Ux, Initial residual = 0.0291621, Final residual = 0.00241297, No Iterations 2
smoothSolver:  Solving for Uy, Initial residual = 0.0420672, Final residual = 0.00392332, No Iterations 2
GAMG:  Solving for p, Initial residual = 0.445604, Final residual = 0.0328414, No Iterations 6
time step continuity errors : sum local = 0.000282385, global = 4.21802e-06, cumulative = -0.000137404
smoothSolver:  Solving for nuTilda, Initial residual = 0.0211811, Final residual = 0.000630421, No Iterations 4
bounding nuTilda, min: -0.00636902 max: 0.6005 average: 0.00718837
ExecutionTime = 0.42 s  ClockTime = 1 s

forceCoeffs forceCoeffs1 write:
    Coefficient	Total	Pressure	Viscous	Internal
    Cd:	0.0807023	0.00651614	0.0741862	0
    Cd(f):	0.0140081	-0.0230688	0.0370769	0
    Cd(r):	0.0666943	0.029585	0.0371093	0
    Cl:	2.51283e-17	8.42006e-20	2.50441e-17	0
    Cl(f):	0.00142082	0.0013061	0.000114721	0
    Cl(r):	-0.00142082	-0.0013061	-0.000114721	0
    CmPitch:	0.00142082	0.0013061	0.000114721	0
    CmRoll:	-0.0263431	-0.0263269	-1.62013e-05	0
    CmYaw:	-4.08084	-4.08114	0.000297418	0
    Cs:	1.49629	0.000920232	1.49537	0
    Cs(f):	-3.3327	-4.08068	0.747981	0
    Cs(r):	4.82899	4.0816	0.747386	0

    writing force and moment coefficient files.

Time = 28

smoothSolver:  Solving for Ux, Initial residual = 0.0281478, Final residual = 0.00226015, No Iterations 2
smoothSolver:  Solving for Uy, Initial residual = 0.0416954, Final residual = 0.00330072, No Iterations 2
GAMG:  Solving for p, Initial residual = 0.430699, Final residual = 0.0294915, No Iterations 6
time step continuity errors : sum local = 0.00024722, global = 2.9217e-05, cumulative = -0.000108187
smoothSolver:  Solving for nuTilda, Initial residual = 0.0212551, Final residual = 0.00062288, No Iterations 4
bounding nuTilda, min: -0.00883644 max: 0.641054 average: 0.00810363
ExecutionTime = 0.43 s  ClockTime = 1 s

forceCoeffs forceCoeffs1 write:
    Coefficient	Total	Pressure	Viscous	Internal
    Cd:	0.116945	0.00647146	0.110474	0
    Cd(f):	0.0337815	-0.021439	0.0552205	0
    Cd(r):	0.0831635	0.0279105	0.055253	0
    Cl:	3.51214e-17	5.75285e-19	3.45461e-17	0
    Cl(f):	0.00205889	0.00194496	0.000113934	0
    Cl(r):	-0.00205889	-0.00194496	-0.000113934	0
    CmPitch:	0.00205889	0.00194496	0.000113934	0
    CmRoll:	-0.024691	-0.0246747	-1.62492e-05	0
    CmYaw:	-4.43512	-4.43557	0.000450074	0
    Cs:	1.40245	0.000922952	1.40153	0
    Cs(f):	-3.73389	-4.4351	0.701213	0
    Cs(r):	5.13634	4.43603	0.700313	0

    writing force and moment coefficient files.

Time = 29

smoothSolver:  Solving for Ux, Initial residual = 0.0278381, Final residual = 0.00259361, No Iterations 2
smoothSolver:  Solving for Uy, Initial residual = 0.0399893, Final residual = 0.00300617, No Iterations 2
GAMG:  Solving for p, Initial residual = 0.401405, Final residual = 0.0327498, No Iterations 6
time step continuity errors : sum local = 0.000287337, global = 2.89452e-05, cumulative = -7.92417e-05
smoothSolver:  Solving for nuTilda, Initial residual = 0.0214628, Final residual = 0.000620468, No Iterations 4
bounding nuTilda, min: -0.00610711 max: 0.696943 average: 0.00907251
ExecutionTime = 0.44 s  ClockTime = 1 s

forceCoeffs forceCoeffs1 write:
    Coefficient	Total	Pressure	Viscous	Internal
    Cd:	0.114321	0.00640809	0.107913	0
    Cd(f):	0.0349047	-0.0190346	0.0539393	0
    Cd(r):	0.0794168	0.0254427	0.0539741	0
    Cl:	4.17013e-17	5.03092e-19	4.11982e-17	0
    Cl(f):	0.0020127	0.00189988	0.000112819	0
    Cl(r):	-0.0020127	-0.00189988	-0.000112819	0
    CmPitch:	0.0020127	0.00189988	0.000112819	0
    CmRoll:	-0.022256	-0.0222387	-1.73576e-05	0
    CmYaw:	-4.50641	-4.50731	0.000896444	0
    Cs:	1.26414	0.000985912	1.26316	0
    Cs(f):	-3.87434	-4.50681	0.632475	0
    Cs(r):	5.13848	4.5078	0.630682	0

    writing force and moment coefficient files.

Time = 30

smoothSolver:  Solving for Ux, Initial residual = 0.026603, Final residual = 0.00249618, No Iterations 2
smoothSolver:  Solving for Uy, Initial residual = 0.0367076, Final residual = 0.00284045, No Iterations 2
GAMG:  Solving for p, Initial residual = 0.446546, Final residual = 0.0419263, No Iterations 6
time step continuity errors : sum local = 0.000322161, global = 3.08034e-05, cumulative = -4.84383e-05
smoothSolver:  Solving for nuTilda, Initial residual = 0.0217163, Final residual = 0.000621498, No Iterations 4
bounding nuTilda, min: -0.0115749 max: 0.760904 average: 0.0101182
ExecutionTime = 0.46 s  ClockTime = 1 s

forceCoeffs forceCoeffs1 write:
    Coefficient	Total	Pressure	Viscous	Internal
    Cd:	0.080589	0.00666515	0.0739238	0
    Cd(f):	0.0204029	-0.0165414	0.0369443	0
    Cd(r):	0.0601861	0.0232065	0.0369795	0
    Cl:	5.24475e-17	4.88901e-19	5.19586e-17	0
    Cl(f):	0.00141882	0.00130148	0.000117344	0
    Cl(r):	-0.00141882	-0.00130148	-0.000117344	0
    CmPitch:	0.00141882	0.00130148	0.000117344	0
    CmRoll:	-0.0198916	-0.019874	-1.76294e-05	0
    CmYaw:	-4.33044	-4.33099	0.000552405	0
    Cs:	1.12984	0.00100135	1.12884	0
    Cs(f):	-3.76552	-4.33049	0.564973	0
    Cs(r):	4.89536	4.33149	0.563868	0

    writing force and moment coefficient files.

Time = 31

smoothSolver:  Solving for Ux, Initial residual = 0.0265908, Final residual = 0.00225644, No Iterations 2
smoothSolver:  Solving for Uy, Initial residual = 0.0359079, Final residual = 0.00267383, No Iterations 2
GAMG:  Solving for p, Initial residual = 0.372456, Final residual = 0.0360979, No Iterations 6
time step continuity errors : sum local = 0.000310461, global = 7.90672e-06, cumulative = -4.05316e-05
smoothSolver:  Solving for nuTilda, Initial residual = 0.0217051, Final residual = 0.000594801, No Iterations 4
bounding nuTilda, min: -0.00750353 max: 0.81652 average: 0.0112359
ExecutionTime = 0.47 s  ClockTime = 1 s

forceCoeffs forceCoeffs1 write:
    Coefficient	Total	Pressure	Viscous	Internal
    Cd:	0.0420996	0.00699677	0.0351028	0
    Cd(f):	0.00261018	-0.0149243	0.0175345	0
    Cd(r):	0.0394894	0.0219211	0.0175683	0
    Cl:	7.13348e-17	5.60771e-19	7.07741e-17	0
    Cl(f):	0.00074119	0.000618007	0.000123183	0
    Cl(r):	-0.00074119	-0.000618007	-0.000123183	0
    CmPitch:	0.00074119	0.000618007	0.000123183	0
    CmRoll:	-0.0184396	-0.0184227	-1.68809e-05	0
    CmYaw:	-4.14433	-4.14405	-0.000281133	0
    Cs:	1.04737	0.000958835	1.04641	0
    Cs(f):	-3.62065	-4.14357	0.522924	0
    Cs(r):	4.66802	4.14453	0.523487	0

    writing force and moment coefficient files.

Time = 32

smoothSolver:  Solving for Ux, Initial residual = 0.0285585, Final residual = 0.00264724, No Iterations 2
smoothSolver:  Solving for Uy, Initial residual = 0.0376825, Final residual = 0.00280617, No Iterations 2
GAMG:  Solving for p, Initial residual = 0.302045, Final residual = 0.024751, No Iterations 6
time step continuity errors : sum local = 0.000248768, global = -7.44606e-06, cumulative = -4.79776e-05
smoothSolver:  Solving for nuTilda, Initial residual = 0.0217206, Final residual = 0.000582363, No Iterations 4
bounding nuTilda, min: -0.00732476 max: 0.898767 average: 0.0123827
ExecutionTime = 0.48 s  ClockTime = 1 s

forceCoeffs forceCoeffs1 write:
    Coefficient	Total	Pressure	Viscous	Internal
    Cd:	0.022536	0.00710541	0.0154306	0
    Cd(f):	-0.00684093	-0.0145397	0.00769873	0
    Cd(r):	0.0293769	0.0216451	0.00773183	0
    Cl:	9.80321e-17	3.46786e-20	9.79974e-17	0
    Cl(f):	0.00039676	0.000271665	0.000125095	0
    Cl(r):	-0.00039676	-0.000271665	-0.000125095	0
    CmPitch:	0.00039676	0.000271665	0.000125095	0
    CmRoll:	-0.0181089	-0.0180924	-1.65493e-05	0
    CmYaw:	-4.27103	-4.27037	-0.000657813	0
    Cs:	1.02859	0.000939998	1.02765	0
    Cs(f):	-3.75673	-4.2699	0.513165	0
    Cs(r):	4.78532	4.27084	0.514481	0

    writing force and moment coefficient files.

Time = 33

smoothSolver:  Solving for Ux, Initial residual = 0.0290367, Final residual = 0.00282965, No Iterations 2
smoothSolver:  Solving for Uy, Initial residual = 0.0389996, Final residual = 0.00323679, No Iterations 2
GAMG:  Solving for p, Initial residual = 0.281218, Final residual = 0.0220314, No Iterations 6
time step continuity errors : sum local = 0.000228204, global = -2.03211e-05, cumulative = -6.82988e-05
smoothSolver:  Solving for nuTilda, Initial residual = 0.0219544, Final residual = 0.000548473, No Iterations 4
bounding nuTilda, min: -0.0132961 max: 0.949319 average: 0.0136251
ExecutionTime = 0.5 s  ClockTime = 1 s

forceCoeffs forceCoeffs1 write:
    Coefficient	Total	Pressure	Viscous	Internal
    Cd:	0.0200797	0.00726298	0.0128167	0
    Cd(f):	-0.00734189	-0.0137345	0.00639266	0
    Cd(r):	0.0274216	0.0209975	0.00642402	0
    Cl:	1.27255e-16	-1.89945e-18	1.29155e-16	0
    Cl(f):	0.000353515	0.000225646	0.000127869	0
    Cl(r):	-0.000353515	-0.000225646	-0.000127869	0
    CmPitch:	0.000353515	0.000225646	0.000127869	0
    CmRoll:	-0.0173817	-0.017366	-1.56837e-05	0
    CmYaw:	-5.06838	-5.06717	-0.0012168	0
    Cs:	0.987282	0.000890836	0.986391	0
    Cs(f):	-4.57474	-5.06672	0.491979	0
    Cs(r):	5.56203	5.06761	0.494412	0

    writing force and moment coefficient files.

Time = 34

smoothSolver:  Solving for Ux, Initial residual = 0.0279229, Final residual = 0.00264246, No Iterations 2
smoothSolver:  Solving for Uy, Initial residual = 0.0376385, Final residual = 0.00336825, No Iterations 2
GAMG:  Solving for p, Initial residual = 0.299711, Final residual = 0.0260011, No Iterations 6
time step continuity errors : sum local = 0.000246595, global = -2.67389e-05, cumulative = -9.50377e-05
smoothSolver:  Solving for nuTilda, Initial residual = 0.0218443, Final residual = 0.000485941, No Iterations 4
bounding nuTilda, min: -0.0089841 max: 1.08391 average: 0.0149521
ExecutionTime = 0.51 s  ClockTime = 1 s

forceCoeffs forceCoeffs1 write:
    Coefficient	Total	Pressure	Viscous	Internal
    Cd:	0.0259158	0.00719586	0.01872	0
    Cd(f):	-0.00286223	-0.0122066	0.00934434	0
    Cd(r):	0.0287781	0.0194024	0.00937566	0
    Cl:	1.48178e-16	-2.1401e-18	1.50318e-16	0
    Cl(f):	0.000456265	0.000329577	0.000126688	0
    Cl(r):	-0.000456265	-0.000329577	-0.000126688	0
    CmPitch:	0.000456265	0.000329577	0.000126688	0
    CmRoll:	-0.0158202	-0.0158045	-1.56605e-05	0
    CmYaw:	-6.39022	-6.38905	-0.00116819	0
    Cs:	0.898585	0.000889517	0.897695	0
    Cs(f):	-5.94093	-6.38861	0.447679	0
    Cs(r):	6.83951	6.38949	0.450016	0

    writing force and moment coefficient files.

Time = 35

smoothSolver:  Solving for Ux, Initial residual = 0.0268365, Final residual = 0.00235521, No Iterations 2
smoothSolver:  Solving for Uy, Initial residual = 0.0357291, Final residual = 0.0031993, No Iterations 2
GAMG:  Solving for p, Initial residual = 0.326046, Final residual = 0.0306489, No Iterations 6
time step continuity errors : sum local = 0.000252667, global = -4.7777e-06, cumulative = -9.98154e-05
smoothSolver:  Solving for nuTilda, Initial residual = 0.021862, Final residual = 0.00209592, No Iterations 2
bounding nuTilda, min: -0.00986466 max: 1.15854 average: 0.0161203
ExecutionTime = 0.52 s  ClockTime = 1 s

forceCoeffs forceCoeffs1 write:
    Coefficient	Total	Pressure	Viscous	Internal
    Cd:	0.025827	0.00729431	0.0185327	0
    Cd(f):	-0.000512806	-0.00976332	0.00925052	0
    Cd(r):	0.0263398	0.0170576	0.00928215	0
    Cl:	1.55079e-16	-1.25633e-18	1.56335e-16	0
    Cl(f):	0.0004547	0.000326279	0.000128421	0
    Cl(r):	-0.0004547	-0.000326279	-0.000128421	0
    CmPitch:	0.0004547	0.000326279	0.000128421	0
    CmRoll:	-0.0134263	-0.0134105	-1.58152e-05	0
    CmYaw:	-7.71233	-7.71125	-0.00107774	0
    Cs:	0.762613	0.000898304	0.761715	0
    Cs(f):	-7.33102	-7.7108	0.37978	0
    Cs(r):	8.09364	7.7117	0.381935	0

    writing force and moment coefficient files.

Time = 36

smoothSolver:  Solving for Ux, Initial residual = 0.0272721, Final residual = 0.00228766, No Iterations 2
smoothSolver:  Solving for Uy, Initial residual = 0.035288, Final residual = 0.00298123, No Iterations 2
GAMG:  Solving for p, Initial residual = 0.346532, Final residual = 0.0246169, No Iterations 8
time step continuity errors : sum local = 0.000184382, global = 1.85867e-05, cumulative = -8.12286e-05
smoothSolver:  Solving for nuTilda, Initial residual = 0.0220135, Final residual = 0.00198066, No Iterations 2
bounding nuTilda, min: -0.0163611 max: 1.21195 average: 0.017404
ExecutionTime = 0.53 s  ClockTime = 1 s

forceCoeffs forceCoeffs1 write:
    Coefficient	Total	Pressure	Viscous	Internal
    Cd:	0.00810486	0.00751689	0.00058797	0
    Cd(f):	-0.00583304	-0.00611175	0.000278711	0
    Cd(r):	0.0139379	0.0136286	0.000309259	0
    Cl:	1.4351e-16	-1.41174e-18	1.44922e-16	0
    Cl(f):	0.000142691	1.03516e-05	0.00013234	0
    Cl(r):	-0.000142691	-1.03516e-05	-0.00013234	0
    CmPitch:	0.000142691	1.03516e-05	0.00013234	0
    CmRoll:	-0.00988548	-0.0098702	-1.52738e-05	0
    CmYaw:	-8.7772	-8.7757	-0.00150358	0
    Cs:	0.561495	0.000867551	0.560627	0
    Cs(f):	-8.49646	-8.77527	0.27881	0
    Cs(r):	9.05795	8.77613	0.281817	0

    writing force and moment coefficient files.

Time = 37

smoothSolver:  Solving for Ux, Initial residual = 0.0291528, Final residual = 0.00251214, No Iterations 2
smoothSolver:  Solving for Uy, Initial residual = 0.0366676, Final residual = 0.0030628, No Iterations 2
GAMG:  Solving for p, Initial residual = 0.356171, Final residual = 0.0333837, No Iterations 6
time step continuity errors : sum local = 0.000237968, global = 4.25634e-05, cumulative = -3.86652e-05
smoothSolver:  Solving for nuTilda, Initial residual = 0.0221867, Final residual = 0.00181244, No Iterations 2
bounding nuTilda, min: -0.00993845 max: 1.26607 average: 0.0187992
ExecutionTime = 0.55 s  ClockTime = 1 s

forceCoeffs forceCoeffs1 write:
    Coefficient	Total	Pressure	Viscous	Internal
    Cd:	-0.01567	0.00768638	-0.0233563	0
    Cd(f):	-0.0154193	-0.00372645	-0.0116929	0
    Cd(r):	-0.000250616	0.0114128	-0.0116634	0
    Cl:	1.21913e-16	-9.98809e-19	1.22911e-16	0
    Cl(f):	-0.00027588	-0.000411203	0.000135324	0
    Cl(r):	0.00027588	0.000411203	-0.000135324	0
    CmPitch:	-0.00027588	-0.000411203	0.000135324	0
    CmRoll:	-0.00758436	-0.00756964	-1.47253e-05	0
    CmYaw:	-9.25015	-9.2482	-0.00194102	0
    Cs:	0.430792	0.000836395	0.429955	0
    Cs(f):	-9.03475	-9.24779	0.213037	0
    Cs(r):	9.46554	9.24862	0.216919	0

    writing force and moment coefficient files.

Time = 38

smoothSolver:  Solving for Ux, Initial residual = 0.0303847, Final residual = 0.00264946, No Iterations 2
smoothSolver:  Solving for Uy, Initial residual = 0.0385282, Final residual = 0.00328711, No Iterations 2
GAMG:  Solving for p, Initial residual = 0.341324, Final residual = 0.0260038, No Iterations 8
time step continuity errors : sum local = 0.000186621, global = 3.78853e-05, cumulative = -7.79911e-07
smoothSolver:  Solving for nuTilda, Initial residual = 0.0223127, Final residual = 0.00165037, No Iterations 2
bounding nuTilda, min: -0.0157217 max: 1.38512 average: 0.0203232
ExecutionTime = 0.56 s  ClockTime = 1 s

forceCoeffs forceCoeffs1 write:
    Coefficient	Total	Pressure	Viscous	Internal
    Cd:	-0.03898	0.00777749	-0.0467575	0
    Cd(f):	-0.0258393	-0.00244642	-0.0233929	0
    Cd(r):	-0.0131407	0.0102239	-0.0233646	0
    Cl:	9.38699e-17	-6.92344e-19	9.45622e-17	0
    Cl(f):	-0.000686268	-0.000823196	0.000136928	0
    Cl(r):	0.000686268	0.000823196	-0.000136928	0
    CmPitch:	-0.000686268	-0.000823196	0.000136928	0
    CmRoll:	-0.00634928	-0.00633517	-1.41151e-05	0
    CmYaw:	-9.43554	-9.43315	-0.00238704	0
    Cs:	0.360639	0.000801736	0.359837	0
    Cs(f):	-9.25522	-9.43275	0.177532	0
    Cs(r):	9.61586	9.43355	0.182306	0

    writing force and moment coefficient files.

Time = 39

smoothSolver:  Solving for Ux, Initial residual = 0.0313845, Final residual = 0.00273594, No Iterations 2
smoothSolver:  Solving for Uy, Initial residual = 0.0394712, Final residual = 0.00352665, No Iterations 2
GAMG:  Solving for p, Initial residual = 0.31041, Final residual = 0.0260869, No Iterations 8
time step continuity errors : sum local = 0.000189809, global = 3.88896e-05, cumulative = 3.81097e-05
smoothSolver:  Solving for nuTilda, Initial residual = 0.0226616, Final residual = 0.00146469, No Iterations 2
bounding nuTilda, min: -0.0219459 max: 1.47604 average: 0.0219498
ExecutionTime = 0.57 s  ClockTime = 1 s

forceCoeffs forceCoeffs1 write:
    Coefficient	Total	Pressure	Viscous	Internal
    Cd:	-0.0506616	0.00777123	-0.0584328	0
    Cd(f):	-0.0321296	-0.0028993	-0.0292303	0
    Cd(r):	-0.018532	0.0106705	-0.0292025	0
    Cl:	6.60576e-17	-3.89442e-19	6.64471e-17	0
    Cl(f):	-0.00089193	-0.00102875	0.000136817	0
    Cl(r):	0.00089193	0.00102875	-0.000136817	0
    CmPitch:	-0.00089193	-0.00102875	0.000136817	0
    CmRoll:	-0.00679881	-0.00678491	-1.38954e-05	0
    CmYaw:	-9.49445	-9.49188	-0.00257714	0
    Cs:	0.386172	0.000789257	0.385383	0
    Cs(f):	-9.30137	-9.49148	0.190114	0
    Cs(r):	9.68754	9.49227	0.195269	0

    writing force and moment coefficient files.

Time = 40

smoothSolver:  Solving for Ux, Initial residual = 0.0322659, Final residual = 0.00285017, No Iterations 2
smoothSolver:  Solving for Uy, Initial residual = 0.0397297, Final residual = 0.00378558, No Iterations 2
GAMG:  Solving for p, Initial residual = 0.283652, Final residual = 0.0231585, No Iterations 8
time step continuity errors : sum local = 0.000171294, global = 3.25886e-05, cumulative = 7.06983e-05
smoothSolver:  Solving for nuTilda, Initial residual = 0.0229401, Final residual = 0.00136569, No Iterations 2
bounding nuTilda, min: -0.0223438 max: 1.53383 average: 0.0236159
ExecutionTime = 0.59 s  ClockTime = 1 s

forceCoeffs forceCoeffs1 write:
    Coefficient	Total	Pressure	Viscous	Internal
    Cd:	-0.0498843	0.00770179	-0.0575861	0
    Cd(f):	-0.0334247	-0.00461762	-0.0288071	0
    Cd(r):	-0.0164596	0.0123194	-0.028779	0
    Cl:	4.1562e-17	-1.52885e-19	4.17149e-17	0
    Cl(f):	-0.000878244	-0.00101384	0.000135595	0
    Cl(r):	0.000878244	0.00101384	-0.000135595	0
    CmPitch:	-0.000878244	-0.00101384	0.000135595	0
    CmRoll:	-0.00848258	-0.00846852	-1.40645e-05	0
    CmYaw:	-9.55761	-9.55509	-0.00252024	0
    Cs:	0.481811	0.000798864	0.481012	0
    Cs(f):	-9.31671	-9.55469	0.237986	0
    Cs(r):	9.79852	9.55549	0.243026	0

    writing force and moment coefficient files.

Time = 41

smoothSolver:  Solving for Ux, Initial residual = 0.0334389, Final residual = 0.00299548, No Iterations 2
smoothSolver:  Solving for Uy, Initial residual = 0.0402239, Final residual = 0.00396179, No Iterations 2
GAMG:  Solving for p, Initial residual = 0.273115, Final residual = 0.0270261, No Iterations 6
time step continuity errors : sum local = 0.000203235, global = 7.33869e-06, cumulative = 7.8037e-05
smoothSolver:  Solving for nuTilda, Initial residual = 0.0235505, Final residual = 0.00135826, No Iterations 2
bounding nuTilda, min: -0.0338895 max: 1.60596 average: 0.025215
ExecutionTime = 0.6 s  ClockTime = 1 s

forceCoeffs forceCoeffs1 write:
    Coefficient	Total	Pressure	Viscous	Internal
    Cd:	-0.0441307	0.00755687	-0.0516876	0
    Cd(f):	-0.0325681	-0.00670958	-0.0258585	0
    Cd(r):	-0.0115626	0.0142664	-0.0258291	0
    Cl:	2.07864e-17	-8.80424e-22	2.07873e-17	0
    Cl(f):	-0.000776949	-0.000909992	0.000133043	0
    Cl(r):	0.000776949	0.000909992	-0.000133043	0
    CmPitch:	-0.000776949	-0.000909992	0.000133043	0
    CmRoll:	-0.0105027	-0.010488	-1.46966e-05	0
    CmYaw:	-9.6317	-9.62951	-0.00219198	0
    Cs:	0.596554	0.000834765	0.595719	0
    Cs(f):	-9.33343	-9.62909	0.295668	0
    Cs(r):	9.92998	9.62993	0.300052	0

    writing force and moment coefficient files.

Time = 42

smoothSolver:  Solving for Ux, Initial residual = 0.0337419, Final residual = 0.00302636, No Iterations 2
smoothSolver:  Solving for Uy, Initial residual = 0.04049, Final residual = 0.00396571, No Iterations 2
GAMG:  Solving for p, Initial residual = 0.264371, Final residual = 0.0211776, No Iterations 8
time step continuity errors : sum local = 0.000162181, global = -2.34427e-05, cumulative = 5.45943e-05
smoothSolver:  Solving for nuTilda, Initial residual = 0.0243567, Final residual = 0.00135331, No Iterations 2
bounding nuTilda, min: -0.026574 max: 1.67107 average: 0.0267448
ExecutionTime = 0.61 s  ClockTime = 1 s

forceCoeffs forceCoeffs1 write:
    Coefficient	Total	Pressure	Viscous	Internal
    Cd:	-0.0405669	0.00741557	-0.0479824	0
    Cd(f):	-0.032886	-0.00887947	-0.0240066	0
    Cd(r):	-0.00768083	0.016295	-0.0239759	0
    Cl:	2.5312e-18	5.48428e-20	2.47636e-18	0
    Cl(f):	-0.000714205	-0.000844761	0.000130556	0
    Cl(r):	0.000714205	0.000844761	-0.000130556	0
    CmPitch:	-0.000714205	-0.000844761	0.000130556	0
    CmRoll:	-0.0126026	-0.0125873	-1.53379e-05	0
    CmYaw:	-9.64572	-9.64383	-0.00188703	0
    Cs:	0.715827	0.000871191	0.714956	0
    Cs(f):	-9.2878	-9.64339	0.355591	0
    Cs(r):	10.0036	9.64426	0.359365	0

    writing force and moment coefficient files.

Time = 43

smoothSolver:  Solving for Ux, Initial residual = 0.0334368, Final residual = 0.00294256, No Iterations 2
smoothSolver:  Solving for Uy, Initial residual = 0.0406533, Final residual = 0.00397845, No Iterations 2
GAMG:  Solving for p, Initial residual = 0.254618, Final residual = 0.0214891, No Iterations 8
time step continuity errors : sum local = 0.00016655, global = -3.22263e-05, cumulative = 2.2368e-05
smoothSolver:  Solving for nuTilda, Initial residual = 0.0251753, Final residual = 0.00136371, No Iterations 2
bounding nuTilda, min: -0.040243 max: 1.69013 average: 0.0281663
ExecutionTime = 0.63 s  ClockTime = 1 s

forceCoeffs forceCoeffs1 write:
    Coefficient	Total	Pressure	Viscous	Internal
    Cd:	-0.0425184	0.00719674	-0.0497151	0
    Cd(f):	-0.0357566	-0.0108827	-0.0248739	0
    Cd(r):	-0.0067618	0.0180795	-0.0248413	0
    Cl:	-1.46808e-17	1.72144e-19	-1.4853e-17	0
    Cl(f):	-0.000748563	-0.000875267	0.000126703	0
    Cl(r):	0.000748563	0.000875267	-0.000126703	0
    CmPitch:	-0.000748563	-0.000875267	0.000126703	0
    CmRoll:	-0.0144974	-0.0144811	-1.62839e-05	0
    CmYaw:	-9.5189	-9.51747	-0.00143207	0
    Cs:	0.823452	0.000924924	0.822527	0
    Cs(f):	-9.10717	-9.51701	0.409832	0
    Cs(r):	9.93063	9.51793	0.412696	0

    writing force and moment coefficient files.

Time = 44

smoothSolver:  Solving for Ux, Initial residual = 0.0329149, Final residual = 0.0027961, No Iterations 2
smoothSolver:  Solving for Uy, Initial residual = 0.0411691, Final residual = 0.00111974, No Iterations 4
GAMG:  Solving for p, Initial residual = 0.254078, Final residual = 0.0219623, No Iterations 8
time step continuity errors : sum local = 0.00016644, global = -3.15956e-05, cumulative = -9.22766e-06
smoothSolver:  Solving for nuTilda, Initial residual = 0.0261435, Final residual = 0.00137767, No Iterations 2
bounding nuTilda, min: -0.059164 max: 1.73994 average: 0.0295062
ExecutionTime = 0.64 s  ClockTime = 1 s

forceCoeffs forceCoeffs1 write:
    Coefficient	Total	Pressure	Viscous	Internal
    Cd:	-0.0471745	0.00702191	-0.0541965	0
    Cd(f):	-0.0400369	-0.0129217	-0.0271153	0
    Cd(r):	-0.0071376	0.0199436	-0.0270812	0
    Cl:	-3.12438e-17	2.54697e-19	-3.14985e-17	0
    Cl(f):	-0.000830538	-0.000954163	0.000123625	0
    Cl(r):	0.000830538	0.000954163	-0.000123625	0
    CmPitch:	-0.000830538	-0.000954163	0.000123625	0
    CmRoll:	-0.0164497	-0.0164326	-1.70493e-05	0
    CmYaw:	-9.21351	-9.21235	-0.00115669	0
    Cs:	0.934341	0.000968399	0.933373	0
    Cs(f):	-8.74634	-9.21187	0.46553	0
    Cs(r):	9.68068	9.21284	0.467843	0

    writing force and moment coefficient files.

Time = 45

smoothSolver:  Solving for Ux, Initial residual = 0.0328341, Final residual = 0.00274207, No Iterations 2
smoothSolver:  Solving for Uy, Initial residual = 0.0417845, Final residual = 0.00407832, No Iterations 2
GAMG:  Solving for p, Initial residual = 0.251202, Final residual = 0.0202034, No Iterations 8
time step continuity errors : sum local = 0.000144551, global = -2.10137e-05, cumulative = -3.02414e-05
smoothSolver:  Solving for nuTilda, Initial residual = 0.0270338, Final residual = 0.00138776, No Iterations 2
bounding nuTilda, min: -0.0499984 max: 1.74273 average: 0.0307611
ExecutionTime = 0.65 s  ClockTime = 1 s

forceCoeffs forceCoeffs1 write:
    Coefficient	Total	Pressure	Viscous	Internal
    Cd:	-0.0517844	0.00688979	-0.0586742	0
    Cd(f):	-0.0440667	-0.0147121	-0.0293546	0
    Cd(r):	-0.00771773	0.0216019	-0.0293197	0
    Cl:	-4.37029e-17	2.80005e-19	-4.39829e-17	0
    Cl(f):	-0.000911698	-0.001033	0.000121299	0
    Cl(r):	0.000911698	0.001033	-0.000121299	0
    CmPitch:	-0.000911698	-0.001033	0.000121299	0
    CmRoll:	-0.0181745	-0.018157	-1.74566e-05	0
    CmYaw:	-8.87167	-8.87053	-0.00113885	0
    Cs:	1.03231	0.000991534	1.03132	0
    Cs(f):	-8.35552	-8.87004	0.514521	0
    Cs(r):	9.38783	8.87103	0.516798	0

    writing force and moment coefficient files.

Time = 46

smoothSolver:  Solving for Ux, Initial residual = 0.0331497, Final residual = 0.0027359, No Iterations 2
smoothSolver:  Solving for Uy, Initial residual = 0.0429703, Final residual = 0.00419777, No Iterations 2
GAMG:  Solving for p, Initial residual = 0.252558, Final residual = 0.0224642, No Iterations 6
time step continuity errors : sum local = 0.000148733, global = 8.25805e-06, cumulative = -2.19833e-05
smoothSolver:  Solving for nuTilda, Initial residual = 0.0280386, Final residual = 0.00144429, No Iterations 2
bounding nuTilda, min: -0.0504428 max: 1.76262 average: 0.0319003
ExecutionTime = 0.67 s  ClockTime = 1 s

forceCoeffs forceCoeffs1 write:
    Coefficient	Total	Pressure	Viscous	Internal
    Cd:	-0.05281	0.00678927	-0.0595993	0
    Cd(f):	-0.0462192	-0.0164019	-0.0298173	0
    Cd(r):	-0.00659086	0.0231911	-0.029782	0
    Cl:	-5.07396e-17	2.30379e-19	-5.097e-17	0
    Cl(f):	-0.000929754	-0.00104928	0.000119529	0
    Cl(r):	0.000929754	0.00104928	-0.000119529	0
    CmPitch:	-0.000929754	-0.00104928	0.000119529	0
    CmRoll:	-0.0198142	-0.0197965	-1.76441e-05	0
    CmYaw:	-8.56633	-8.56504	-0.00129103	0
    Cs:	1.12544	0.00100219	1.12444	0
    Cs(f):	-8.00361	-8.56454	0.56093	0
    Cs(r):	9.12906	8.56554	0.563512	0

    writing force and moment coefficient files.

Time = 47

smoothSolver:  Solving for Ux, Initial residual = 0.0336214, Final residual = 0.00280486, No Iterations 2
smoothSolver:  Solving for Uy, Initial residual = 0.0443768, Final residual = 0.00124354, No Iterations 4
GAMG:  Solving for p, Initial residual = 0.262949, Final residual = 0.0224123, No Iterations 8
time step continuity errors : sum local = 0.000138475, global = 1.96495e-05, cumulative = -2.33382e-06
smoothSolver:  Solving for nuTilda, Initial residual = 0.0290229, Final residual = 0.00150988, No Iterations 2
bounding nuTilda, min: -0.0728113 max: 1.76068 average: 0.0329404
ExecutionTime = 0.68 s  ClockTime = 1 s

forceCoeffs forceCoeffs1 write:
    Coefficient	Total	Pressure	Viscous	Internal
    Cd:	-0.0492576	0.0067388	-0.0559964	0
    Cd(f):	-0.046514	-0.018498	-0.0280159	0
    Cd(r):	-0.00274368	0.0252368	-0.0279805	0
    Cl:	-5.27279e-17	2.44049e-19	-5.29719e-17	0
    Cl(f):	-0.000867212	-0.000985853	0.000118641	0
    Cl(r):	0.000867212	0.000985853	-0.000118641	0
    CmPitch:	-0.000867212	-0.000985853	0.000118641	0
    CmRoll:	-0.0218851	-0.0218674	-1.77098e-05	0
    CmYaw:	-8.27972	-8.27816	-0.00156176	0
    Cs:	1.24308	0.00100592	1.24207	0
    Cs(f):	-7.65818	-8.27765	0.619473	0
    Cs(r):	8.90126	8.27866	0.622597	0

    writing force and moment coefficient files.

Time = 48

smoothSolver:  Solving for Ux, Initial residual = 0.0344554, Final residual = 0.00303735, No Iterations 2
smoothSolver:  Solving for Uy, Initial residual = 0.0449725, Final residual = 0.00123698, No Iterations 4
GAMG:  Solving for p, Initial residual = 0.260543, Final residual = 0.0237658, No Iterations 8
time step continuity errors : sum local = 0.000143257, global = 2.84933e-05, cumulative = 2.61595e-05
smoothSolver:  Solving for nuTilda, Initial residual = 0.0302998, Final residual = 0.00154356, No Iterations 2
bounding nuTilda, min: -0.0629886 max: 1.73923 average: 0.0338734
ExecutionTime = 0.69 s  ClockTime = 1 s

forceCoeffs forceCoeffs1 write:
    Coefficient	Total	Pressure	Viscous	Internal
    Cd:	-0.0455351	0.00668581	-0.0522209	0
    Cd(f):	-0.0463027	-0.0201744	-0.0261283	0
    Cd(r):	0.000767634	0.0268602	-0.0260926	0
    Cl:	-5.00353e-17	2.12915e-19	-5.02482e-17	0
    Cl(f):	-0.000801674	-0.000919382	0.000117708	0
    Cl(r):	0.000801674	0.000919382	-0.000117708	0
    CmPitch:	-0.000801674	-0.000919382	0.000117708	0
    CmRoll:	-0.0235352	-0.0235173	-1.78826e-05	0
    CmYaw:	-8.13125	-8.12946	-0.00179057	0
    Cs:	1.3368	0.00101573	1.33578	0
    Cs(f):	-7.46286	-8.12896	0.666101	0
    Cs(r):	8.79965	8.12997	0.669682	0

    writing force and moment coefficient files.

Time = 49

smoothSolver:  Solving for Ux, Initial residual = 0.0350026, Final residual = 0.0031895, No Iterations 2
smoothSolver:  Solving for Uy, Initial residual = 0.0449402, Final residual = 0.00433362, No Iterations 2
GAMG:  Solving for p, Initial residual = 0.243145, Final residual = 0.0223316, No Iterations 8
time step continuity errors : sum local = 0.000135123, global = 2.92595e-05, cumulative = 5.54189e-05
smoothSolver:  Solving for nuTilda, Initial residual = 0.0309892, Final residual = 0.00159767, No Iterations 2
bounding nuTilda, min: -0.0490748 max: 1.73513 average: 0.0346544
ExecutionTime = 0.71 s  ClockTime = 1 s

forceCoeffs forceCoeffs1 write:
    Coefficient	Total	Pressure	Viscous	Internal
    Cd:	-0.0453269	0.00664628	-0.0519732	0
    Cd(f):	-0.0472119	-0.0212072	-0.0260047	0
    Cd(r):	0.00188495	0.0278535	-0.0259686	0
    Cl:	-4.57133e-17	2.02251e-19	-4.59156e-17	0
    Cl(f):	-0.00079801	-0.000915021	0.000117012	0
    Cl(r):	0.00079801	0.000915021	-0.000117012	0
    CmPitch:	-0.00079801	-0.000915021	0.000117012	0
    CmRoll:	-0.0245484	-0.0245304	-1.80409e-05	0
    CmYaw:	-8.12467	-8.12262	-0.00204668	0
    Cs:	1.39435	0.00102472	1.39333	0
    Cs(f):	-7.42749	-8.12211	0.694616	0
    Cs(r):	8.82184	8.12313	0.698709	0

    writing force and moment coefficient files.

Time = 50

smoothSolver:  Solving for Ux, Initial residual = 0.0347589, Final residual = 0.00325549, No Iterations 2
smoothSolver:  Solving for Uy, Initial residual = 0.0455818, Final residual = 0.00127527, No Iterations 4
GAMG:  Solving for p, Initial residual = 0.216122, Final residual = 0.0210154, No Iterations 7
time step continuity errors : sum local = 0.000128884, global = -3.27041e-05, cumulative = 2.27149e-05
smoothSolver:  Solving for nuTilda, Initial residual = 0.0319498, Final residual = 0.0016241, No Iterations 2
bounding nuTilda, min: -0.0606779 max: 1.72123 average: 0.035299
ExecutionTime = 0.75 s  ClockTime = 1 s

forceCoeffs forceCoeffs1 write:
    Coefficient	Total	Pressure	Viscous	Internal
    Cd:	-0.0475519	0.00662167	-0.0541736	0
    Cd(f):	-0.0486969	-0.0215919	-0.027105	0
    Cd(r):	0.00114498	0.0282136	-0.0270686	0
    Cl:	-4.04691e-17	1.7251e-19	-4.06416e-17	0
    Cl(f):	-0.000837182	-0.000953761	0.000116579	0
    Cl(r):	0.000837182	0.000953761	-0.000116579	0
    CmPitch:	-0.000837182	-0.000953761	0.000116579	0
    CmRoll:	-0.0249209	-0.0249027	-1.82105e-05	0
    CmYaw:	-8.15744	-8.15513	-0.00230564	0
    Cs:	1.41551	0.00103436	1.41448	0
    Cs(f):	-7.44969	-8.15462	0.704932	0
    Cs(r):	8.8652	8.15565	0.709543	0

    writing force and moment coefficient files.

    functionObjects::momentumError momErr writing field: momentError
    functionObjects::div contErr writing field: div(phi)
    functionObjects::turbulenceFields turbulenceFields1 writing field: turbulenceProperties:nut
    functionObjects::turbulenceFields turbulenceFields1 writing field: turbulenceProperties:nuEff
    functionObjects::turbulenceFields turbulenceFields1 writing field: turbulenceProperties:k
    functionObjects::turbulenceFields turbulenceFields1 writing field: turbulenceProperties:R
    functionObjects::turbulenceFields turbulenceFields1 writing field: turbulenceProperties:I
    functionObjects::turbulenceFields turbulenceFields1 writing field: turbulenceProperties:L
    functionObjects::turbulenceFields turbulenceFields1 writing field: turbulenceProperties:devReff
    functionObjects::turbulenceFields turbulenceFields1 writing field: turbulenceProperties:epsilon

    functionObjects::mag mag1 writing field: magR
Time = 51

smoothSolver:  Solving for Ux, Initial residual = 0.034789, Final residual = 0.00323885, No Iterations 2
smoothSolver:  Solving for Uy, Initial residual = 0.045729, Final residual = 0.00455742, No Iterations 2
GAMG:  Solving for p, Initial residual = 0.194565, Final residual = 0.0180337, No Iterations 6
time step continuity errors : sum local = 0.000112243, global = -4.60873e-06, cumulative = 1.81061e-05
smoothSolver:  Solving for nuTilda, Initial residual = 0.032632, Final residual = 0.00163146, No Iterations 2
bounding nuTilda, min: -0.074758 max: 1.69606 average: 0.0357973
ExecutionTime = 0.85 s  ClockTime = 1 s

forceCoeffs forceCoeffs1 write:
    Coefficient	Total	Pressure	Viscous	Internal
    Cd:	-0.0510082	0.00660013	-0.0576083	0
    Cd(f):	-0.0505322	-0.0217097	-0.0288225	0
    Cd(r):	-0.000475962	0.0283098	-0.0287858	0
    Cl:	-3.6574e-17	2.15833e-19	-3.67898e-17	0
    Cl(f):	-0.000898031	-0.00101423	0.000116199	0
    Cl(r):	0.000898031	0.00101423	-0.000116199	0
    CmPitch:	-0.000898031	-0.00101423	0.000116199	0
    CmRoll:	-0.0250281	-0.0250098	-1.83791e-05	0
    CmYaw:	-8.19117	-8.18863	-0.00253987	0
    Cs:	1.4216	0.00104393	1.42055	0
    Cs(f):	-7.48037	-8.18811	0.707737	0
    Cs(r):	8.90197	8.18915	0.712817	0

    writing force and moment coefficient files.

Time = 52

smoothSolver:  Solving for Ux, Initial residual = 0.034497, Final residual = 0.0032176, No Iterations 2
smoothSolver:  Solving for Uy, Initial residual = 0.0464296, Final residual = 0.00139496, No Iterations 4
GAMG:  Solving for p, Initial residual = 0.196868, Final residual = 0.0195874, No Iterations 6
time step continuity errors : sum local = 0.000118558, global = -1.8595e-05, cumulative = -4.88826e-07
smoothSolver:  Solving for nuTilda, Initial residual = 0.0333774, Final residual = 0.00161091, No Iterations 2
bounding nuTilda, min: -0.0650246 max: 1.66548 average: 0.0361707
ExecutionTime = 0.86 s  ClockTime = 1 s

forceCoeffs forceCoeffs1 write:
    Coefficient	Total	Pressure	Viscous	Internal
    Cd:	-0.0525468	0.00656569	-0.0591125	0
    Cd(f):	-0.0513733	-0.0217985	-0.0295749	0
    Cd(r):	-0.00117345	0.0283642	-0.0295376	0
    Cl:	-3.33111e-17	3.25977e-19	-3.3637e-17	0
    Cl(f):	-0.00092512	-0.00104071	0.000115593	0
    Cl(r):	0.00092512	0.00104071	-0.000115593	0
    CmPitch:	-0.00092512	-0.00104071	0.000115593	0
    CmRoll:	-0.0250999	-0.0250813	-1.86148e-05	0
    CmYaw:	-8.18431	-8.18159	-0.00272165	0
    Cs:	1.42568	0.00105732	1.42462	0
    Cs(f):	-7.47147	-8.18106	0.709588	0
    Cs(r):	8.89715	8.18212	0.715031	0

    writing force and moment coefficient files.

Time = 53

smoothSolver:  Solving for Ux, Initial residual = 0.0346195, Final residual = 0.003187, No Iterations 2
smoothSolver:  Solving for Uy, Initial residual = 0.0466414, Final residual = 0.00138742, No Iterations 4
GAMG:  Solving for p, Initial residual = 0.205418, Final residual = 0.0173214, No Iterations 8
time step continuity errors : sum local = 0.000100334, global = -1.91691e-05, cumulative = -1.9658e-05
smoothSolver:  Solving for nuTilda, Initial residual = 0.0338866, Final residual = 0.00158871, No Iterations 2
bounding nuTilda, min: -0.056641 max: 1.63094 average: 0.0363899
ExecutionTime = 0.88 s  ClockTime = 1 s

forceCoeffs forceCoeffs1 write:
    Coefficient	Total	Pressure	Viscous	Internal
    Cd:	-0.0518813	0.00656434	-0.0584456	0
    Cd(f):	-0.0513277	-0.0220861	-0.0292416	0
    Cd(r):	-0.000553552	0.0286504	-0.029204	0
    Cl:	-3.09528e-17	3.62275e-19	-3.13151e-17	0
    Cl(f):	-0.000913402	-0.00102897	0.000115569	0
    Cl(r):	0.000913402	0.00102897	-0.000115569	0
    CmPitch:	-0.000913402	-0.00102897	0.000115569	0
    CmRoll:	-0.0253871	-0.0253683	-1.88022e-05	0
    CmYaw:	-8.15889	-8.15596	-0.00293009	0
    Cs:	1.44199	0.00106796	1.44092	0
    Cs(f):	-7.4379	-8.15543	0.717529	0
    Cs(r):	8.87988	8.1565	0.723389	0

    writing force and moment coefficient files.

Time = 54

smoothSolver:  Solving for Ux, Initial residual = 0.0349057, Final residual = 0.00323046, No Iterations 2
smoothSolver:  Solving for Uy, Initial residual = 0.0474843, Final residual = 0.00474588, No Iterations 2
GAMG:  Solving for p, Initial residual = 0.204449, Final residual = 0.0176941, No Iterations 8
time step continuity errors : sum local = 9.79156e-05, global = -2.12607e-05, cumulative = -4.09186e-05
smoothSolver:  Solving for nuTilda, Initial residual = 0.0343584, Final residual = 0.00154605, No Iterations 2
bounding nuTilda, min: -0.0613233 max: 1.59206 average: 0.0364418
ExecutionTime = 0.89 s  ClockTime = 1 s

forceCoeffs forceCoeffs1 write:
    Coefficient	Total	Pressure	Viscous	Internal
    Cd:	-0.0510826	0.00657565	-0.0576583	0
    Cd(f):	-0.0512955	-0.0224474	-0.0288481	0
    Cd(r):	0.000212897	0.0290231	-0.0288102	0
    Cl:	-2.86248e-17	3.98975e-19	-2.90237e-17	0
    Cl(f):	-0.000899342	-0.00101511	0.000115769	0
    Cl(r):	0.000899342	0.00101511	-0.000115769	0
    CmPitch:	-0.000899342	-0.00101511	0.000115769	0
    CmRoll:	-0.0257542	-0.0257352	-1.89781e-05	0
    CmYaw:	-8.18345	-8.18031	-0.00314019	0
    Cs:	1.46284	0.00107796	1.46176	0
    Cs(f):	-7.45203	-8.17977	0.72774	0
    Cs(r):	8.91487	8.18085	0.734021	0

    writing force and moment coefficient files.

Time = 55

smoothSolver:  Solving for Ux, Initial residual = 0.0350098, Final residual = 0.00325791, No Iterations 2
smoothSolver:  Solving for Uy, Initial residual = 0.0486566, Final residual = 0.00149047, No Iterations 4
GAMG:  Solving for p, Initial residual = 0.19276, Final residual = 0.0164, No Iterations 7
time step continuity errors : sum local = 8.88209e-05, global = 2.12066e-05, cumulative = -1.9712e-05
smoothSolver:  Solving for nuTilda, Initial residual = 0.0347523, Final residual = 0.0014721, No Iterations 2
bounding nuTilda, min: -0.058224 max: 1.55468 average: 0.0363849
ExecutionTime = 0.9 s  ClockTime = 1 s

forceCoeffs forceCoeffs1 write:
    Coefficient	Total	Pressure	Viscous	Internal
    Cd:	-0.0514568	0.00658441	-0.0580412	0
    Cd(f):	-0.0516704	-0.0226306	-0.0290398	0
    Cd(r):	0.000213565	0.029215	-0.0290014	0
    Cl:	-2.68227e-17	3.51188e-19	-2.71739e-17	0
    Cl(f):	-0.00090593	-0.00102185	0.000115923	0
    Cl(r):	0.00090593	0.00102185	-0.000115923	0
    CmPitch:	-0.00090593	-0.00102185	0.000115923	0
    CmRoll:	-0.025942	-0.0259228	-1.92135e-05	0
    CmYaw:	-8.24908	-8.24577	-0.00331361	0
    Cs:	1.4735	0.00109133	1.47241	0
    Cs(f):	-7.51233	-8.24522	0.732893	0
    Cs(r):	8.98583	8.24631	0.73952	0

    writing force and moment coefficient files.

Time = 56

smoothSolver:  Solving for Ux, Initial residual = 0.0351239, Final residual = 0.00327304, No Iterations 2
smoothSolver:  Solving for Uy, Initial residual = 0.0490248, Final residual = 0.0015224, No Iterations 4
GAMG:  Solving for p, Initial residual = 0.182656, Final residual = 0.0156484, No Iterations 6
time step continuity errors : sum local = 8.35789e-05, global = -7.3317e-06, cumulative = -2.70437e-05
smoothSolver:  Solving for nuTilda, Initial residual = 0.0349272, Final residual = 0.00139913, No Iterations 2
bounding nuTilda, min: -0.0460658 max: 1.52202 average: 0.0361548
ExecutionTime = 0.91 s  ClockTime = 2 s

forceCoeffs forceCoeffs1 write:
    Coefficient	Total	Pressure	Viscous	Internal
    Cd:	-0.0533719	0.00660115	-0.059973	0
    Cd(f):	-0.0526341	-0.0226281	-0.030006	0
    Cd(r):	-0.000737828	0.0292293	-0.0299671	0
    Cl:	-2.43382e-17	3.75416e-19	-2.47136e-17	0
    Cl(f):	-0.000939646	-0.00105586	0.000116217	0
    Cl(r):	0.000939646	0.00105586	-0.000116217	0
    CmPitch:	-0.000939646	-0.00105586	0.000116217	0
    CmRoll:	-0.0259481	-0.0259287	-1.94318e-05	0
    CmYaw:	-8.32267	-8.31916	-0.003504	0
    Cs:	1.47385	0.00110373	1.47275	0
    Cs(f):	-7.58574	-8.31861	0.732871	0
    Cs(r):	9.05959	8.31971	0.739879	0

    writing force and moment coefficient files.

Time = 57

smoothSolver:  Solving for Ux, Initial residual = 0.0352273, Final residual = 0.00330679, No Iterations 2
smoothSolver:  Solving for Uy, Initial residual = 0.0484974, Final residual = 0.00148867, No Iterations 4
GAMG:  Solving for p, Initial residual = 0.176167, Final residual = 0.0139532, No Iterations 6
time step continuity errors : sum local = 7.48517e-05, global = 1.44568e-07, cumulative = -2.68991e-05
smoothSolver:  Solving for nuTilda, Initial residual = 0.0350057, Final residual = 0.00131648, No Iterations 2
bounding nuTilda, min: -0.0404476 max: 1.49563 average: 0.0358039
ExecutionTime = 0.93 s  ClockTime = 2 s

forceCoeffs forceCoeffs1 write:
    Coefficient	Total	Pressure	Viscous	Internal
    Cd:	-0.0562901	0.0066207	-0.0629108	0
    Cd(f):	-0.0539753	-0.0225003	-0.0314751	0
    Cd(r):	-0.00231478	0.029121	-0.0314357	0
    Cl:	-2.2014e-17	3.14825e-19	-2.23288e-17	0
    Cl(f):	-0.000991023	-0.00110758	0.000116562	0
    Cl(r):	0.000991023	0.00110758	-0.000116562	0
    CmPitch:	-0.000991023	-0.00110758	0.000116562	0
    CmRoll:	-0.0258303	-0.0258106	-1.96637e-05	0
    CmYaw:	-8.38543	-8.38176	-0.00367021	0
    Cs:	1.46716	0.0011169	1.46604	0
    Cs(f):	-7.65185	-8.3812	0.729351	0
    Cs(r):	9.11901	8.38231	0.736691	0

    writing force and moment coefficient files.

Time = 58

smoothSolver:  Solving for Ux, Initial residual = 0.0350272, Final residual = 0.0033068, No Iterations 2
smoothSolver:  Solving for Uy, Initial residual = 0.0478922, Final residual = 0.00142993, No Iterations 4
GAMG:  Solving for p, Initial residual = 0.168345, Final residual = 0.0167654, No Iterations 7
time step continuity errors : sum local = 8.95043e-05, global = -1.62231e-05, cumulative = -4.31222e-05
smoothSolver:  Solving for nuTilda, Initial residual = 0.0349281, Final residual = 0.00122459, No Iterations 2
bounding nuTilda, min: -0.0473473 max: 1.46982 average: 0.0353164
ExecutionTime = 0.94 s  ClockTime = 2 s

forceCoeffs forceCoeffs1 write:
    Coefficient	Total	Pressure	Viscous	Internal
    Cd:	-0.0592296	0.00664391	-0.0658735	0
    Cd(f):	-0.0553201	-0.0223635	-0.0329566	0
    Cd(r):	-0.00390956	0.0290074	-0.0329169	0
    Cl:	-1.94921e-17	3.75745e-19	-1.98679e-17	0
    Cl(f):	-0.00104278	-0.00115975	0.00011697	0
    Cl(r):	0.00104278	0.00115975	-0.00011697	0
    CmPitch:	-0.00104278	-0.00115975	0.00011697	0
    CmRoll:	-0.0257052	-0.0256854	-1.98376e-05	0
    CmYaw:	-8.43424	-8.43038	-0.00386193	0
    Cs:	1.46006	0.00112678	1.45893	0
    Cs(f):	-7.70421	-8.42982	0.725604	0
    Cs(r):	9.16427	8.43094	0.733328	0

    writing force and moment coefficient files.

Time = 59

smoothSolver:  Solving for Ux, Initial residual = 0.0346233, Final residual = 0.00327539, No Iterations 2
smoothSolver:  Solving for Uy, Initial residual = 0.0471088, Final residual = 0.00457872, No Iterations 2
GAMG:  Solving for p, Initial residual = 0.161676, Final residual = 0.015234, No Iterations 6
time step continuity errors : sum local = 8.05162e-05, global = 1.17813e-05, cumulative = -3.1341e-05
smoothSolver:  Solving for nuTilda, Initial residual = 0.0348292, Final residual = 0.00115508, No Iterations 2
bounding nuTilda, min: -0.0441797 max: 1.45052 average: 0.0347221
ExecutionTime = 0.95 s  ClockTime = 2 s

forceCoeffs forceCoeffs1 write:
    Coefficient	Total	Pressure	Viscous	Internal
    Cd:	-0.0622893	0.00667693	-0.0689662	0
    Cd(f):	-0.0567894	-0.0222863	-0.0345031	0
    Cd(r):	-0.00549988	0.0289633	-0.0344631	0
    Cl:	-1.74294e-17	3.03706e-19	-1.77331e-17	0
    Cl(f):	-0.00109664	-0.00121419	0.000117552	0
    Cl(r):	0.00109664	0.00121419	-0.000117552	0
    CmPitch:	-0.00109664	-0.00121419	0.000117552	0
[...]
ExecutionTime = 7.34 s  ClockTime = 8 s

forceCoeffs forceCoeffs1 write:
    Coefficient	Total	Pressure	Viscous	Internal
    Cd:	-0.227667	0.00738829	-0.235055	0
    Cd(f):	-0.151649	-0.0340989	-0.11755	0
    Cd(r):	-0.0760182	0.0414872	-0.117505	0
    Cl:	-6.1214e-17	5.60618e-19	-6.17746e-17	0
    Cl(f):	-0.00400822	-0.00413829	0.000130076	0
    Cl(r):	0.00400822	0.00413829	-0.000130076	0
    CmPitch:	-0.00400822	-0.00413829	0.000130076	0
    CmRoll:	-0.0378152	-0.037793	-2.22063e-05	0
    CmYaw:	-13.801	-13.7887	-0.0123038	0
    Cs:	2.1479	0.00126132	2.14664	0
    Cs(f):	-12.7271	-13.7881	1.06102	0
    Cs(r):	14.875	13.7893	1.08563	0

    writing force and moment coefficient files.

Time = 487

smoothSolver:  Solving for Ux, Initial residual = 5.18059e-06, Final residual = 1.60322e-07, No Iterations 2
smoothSolver:  Solving for Uy, Initial residual = 1.69921e-06, Final residual = 8.2125e-08, No Iterations 2
GAMG:  Solving for p, Initial residual = 7.71246e-05, Final residual = 6.86107e-06, No Iterations 9
time step continuity errors : sum local = 4.18588e-08, global = 1.3602e-08, cumulative = 3.24247e-05
smoothSolver:  Solving for nuTilda, Initial residual = 0.00123025, Final residual = 2.99877e-06, No Iterations 2
bounding nuTilda, min: -0.00494545 max: 0.380265 average: 0.0101395
ExecutionTime = 7.35 s  ClockTime = 8 s

forceCoeffs forceCoeffs1 write:
    Coefficient	Total	Pressure	Viscous	Internal
    Cd:	-0.227679	0.00738704	-0.235066	0
    Cd(f):	-0.151653	-0.0340978	-0.117555	0
    Cd(r):	-0.0760261	0.0414849	-0.117511	0
    Cl:	-6.12303e-17	5.63968e-19	-6.17943e-17	0
    Cl(f):	-0.00400844	-0.00413849	0.000130053	0
    Cl(r):	0.00400844	0.00413849	-0.000130053	0
    CmPitch:	-0.00400844	-0.00413849	0.000130053	0
    CmRoll:	-0.0378136	-0.0377913	-2.22082e-05	0
    CmYaw:	-13.8016	-13.7893	-0.012302	0
    Cs:	2.14781	0.00126142	2.14655	0
    Cs(f):	-12.7277	-13.7887	1.06097	0
    Cs(r):	14.8755	13.7899	1.08558	0

    writing force and moment coefficient files.

Time = 488

smoothSolver:  Solving for Ux, Initial residual = 5.41802e-06, Final residual = 1.69222e-07, No Iterations 2
smoothSolver:  Solving for Uy, Initial residual = 1.69621e-06, Final residual = 8.67499e-08, No Iterations 2
GAMG:  Solving for p, Initial residual = 7.52976e-05, Final residual = 6.90809e-06, No Iterations 9
time step continuity errors : sum local = 4.21386e-08, global = -1.40231e-08, cumulative = 3.24107e-05
smoothSolver:  Solving for nuTilda, Initial residual = 0.00122946, Final residual = 3.85229e-06, No Iterations 2
bounding nuTilda, min: -0.00659023 max: 0.380264 average: 0.0101363
ExecutionTime = 7.37 s  ClockTime = 8 s

forceCoeffs forceCoeffs1 write:
    Coefficient	Total	Pressure	Viscous	Internal
    Cd:	-0.227667	0.0073883	-0.235055	0
    Cd(f):	-0.151649	-0.0340989	-0.11755	0
    Cd(r):	-0.0760183	0.0414872	-0.117505	0
    Cl:	-6.12145e-17	5.60619e-19	-6.17751e-17	0
    Cl(f):	-0.00400822	-0.0041383	0.000130076	0
    Cl(r):	0.00400822	0.0041383	-0.000130076	0
    CmPitch:	-0.00400822	-0.0041383	0.000130076	0
    CmRoll:	-0.0378152	-0.037793	-2.22062e-05	0
    CmYaw:	-13.8011	-13.7887	-0.0123037	0
    Cs:	2.1479	0.00126131	2.14664	0
    Cs(f):	-12.7271	-13.7881	1.06102	0
    Cs(r):	14.875	13.7894	1.08563	0

    writing force and moment coefficient files.

Time = 489

smoothSolver:  Solving for Ux, Initial residual = 5.11457e-06, Final residual = 1.63066e-07, No Iterations 2
smoothSolver:  Solving for Uy, Initial residual = 1.66721e-06, Final residual = 8.50505e-08, No Iterations 2
GAMG:  Solving for p, Initial residual = 7.8415e-05, Final residual = 7.06941e-06, No Iterations 9
time step continuity errors : sum local = 4.313e-08, global = 1.32515e-08, cumulative = 3.24239e-05
smoothSolver:  Solving for nuTilda, Initial residual = 0.00121312, Final residual = 2.98287e-06, No Iterations 2
bounding nuTilda, min: -0.0054178 max: 0.380264 average: 0.0101389
ExecutionTime = 7.38 s  ClockTime = 8 s

forceCoeffs forceCoeffs1 write:
    Coefficient	Total	Pressure	Viscous	Internal
    Cd:	-0.22768	0.00738704	-0.235067	0
    Cd(f):	-0.151653	-0.0340978	-0.117556	0
    Cd(r):	-0.0760264	0.0414849	-0.117511	0
    Cl:	-6.12306e-17	5.63971e-19	-6.17946e-17	0
    Cl(f):	-0.00400845	-0.0041385	0.000130054	0
    Cl(r):	0.00400845	0.0041385	-0.000130054	0
    CmPitch:	-0.00400845	-0.0041385	0.000130054	0
    CmRoll:	-0.0378136	-0.0377913	-2.2208e-05	0
    CmYaw:	-13.8016	-13.7893	-0.012302	0
    Cs:	2.14781	0.00126141	2.14655	0
    Cs(f):	-12.7277	-13.7887	1.06097	0
    Cs(r):	14.8755	13.79	1.08558	0

    writing force and moment coefficient files.

Time = 490

smoothSolver:  Solving for Ux, Initial residual = 5.47006e-06, Final residual = 1.68716e-07, No Iterations 2
smoothSolver:  Solving for Uy, Initial residual = 1.70909e-06, Final residual = 8.41566e-08, No Iterations 2
GAMG:  Solving for p, Initial residual = 7.50051e-05, Final residual = 6.92221e-06, No Iterations 9
time step continuity errors : sum local = 4.22249e-08, global = -1.26702e-08, cumulative = 3.24113e-05
smoothSolver:  Solving for nuTilda, Initial residual = 0.00121345, Final residual = 3.79065e-06, No Iterations 2
bounding nuTilda, min: -0.00658871 max: 0.380264 average: 0.0101357
ExecutionTime = 7.39 s  ClockTime = 8 s

forceCoeffs forceCoeffs1 write:
    Coefficient	Total	Pressure	Viscous	Internal
    Cd:	-0.227668	0.0073883	-0.235056	0
    Cd(f):	-0.151649	-0.0340988	-0.11755	0
    Cd(r):	-0.0760187	0.0414871	-0.117506	0
    Cl:	-6.12145e-17	5.6062e-19	-6.17751e-17	0
    Cl(f):	-0.00400823	-0.00413831	0.000130076	0
    Cl(r):	0.00400823	0.00413831	-0.000130076	0
    CmPitch:	-0.00400823	-0.00413831	0.000130076	0
    CmRoll:	-0.0378152	-0.037793	-2.2206e-05	0
    CmYaw:	-13.8011	-13.7888	-0.0123037	0
    Cs:	2.1479	0.0012613	2.14664	0
    Cs(f):	-12.7271	-13.7881	1.06102	0
    Cs(r):	14.875	13.7894	1.08562	0

    writing force and moment coefficient files.

Time = 491

smoothSolver:  Solving for Ux, Initial residual = 5.2021e-06, Final residual = 1.59917e-07, No Iterations 2
smoothSolver:  Solving for Uy, Initial residual = 1.69405e-06, Final residual = 8.69257e-08, No Iterations 2
GAMG:  Solving for p, Initial residual = 7.57409e-05, Final residual = 6.95924e-06, No Iterations 9
time step continuity errors : sum local = 4.24577e-08, global = 1.30381e-08, cumulative = 3.24243e-05
smoothSolver:  Solving for nuTilda, Initial residual = 0.00121589, Final residual = 3.04701e-06, No Iterations 2
bounding nuTilda, min: -0.00494548 max: 0.380264 average: 0.0101395
ExecutionTime = 7.41 s  ClockTime = 8 s

forceCoeffs forceCoeffs1 write:
    Coefficient	Total	Pressure	Viscous	Internal
    Cd:	-0.22768	0.00738705	-0.235067	0
    Cd(f):	-0.151654	-0.0340978	-0.117556	0
    Cd(r):	-0.0760266	0.0414848	-0.117511	0
    Cl:	-6.12302e-17	5.63972e-19	-6.17942e-17	0
    Cl(f):	-0.00400846	-0.00413851	0.000130054	0
    Cl(r):	0.00400846	0.00413851	-0.000130054	0
    CmPitch:	-0.00400846	-0.00413851	0.000130054	0
    CmRoll:	-0.0378135	-0.0377913	-2.22079e-05	0
    CmYaw:	-13.8016	-13.7893	-0.012302	0
    Cs:	2.14781	0.00126141	2.14655	0
    Cs(f):	-12.7277	-13.7887	1.06097	0
    Cs(r):	14.8755	13.7899	1.08557	0

    writing force and moment coefficient files.

Time = 492

smoothSolver:  Solving for Ux, Initial residual = 5.46092e-06, Final residual = 1.75711e-07, No Iterations 2
smoothSolver:  Solving for Uy, Initial residual = 1.74147e-06, Final residual = 8.60716e-08, No Iterations 2
GAMG:  Solving for p, Initial residual = 7.61171e-05, Final residual = 6.79212e-06, No Iterations 9
time step continuity errors : sum local = 4.14314e-08, global = -1.32011e-08, cumulative = 3.24111e-05
smoothSolver:  Solving for nuTilda, Initial residual = 0.00121954, Final residual = 3.79162e-06, No Iterations 2
bounding nuTilda, min: -0.00659027 max: 0.380264 average: 0.0101356
ExecutionTime = 7.42 s  ClockTime = 8 s

forceCoeffs forceCoeffs1 write:
    Coefficient	Total	Pressure	Viscous	Internal
    Cd:	-0.227667	0.00738829	-0.235056	0
    Cd(f):	-0.151649	-0.0340989	-0.11755	0
    Cd(r):	-0.0760185	0.0414872	-0.117506	0
    Cl:	-6.12144e-17	5.60626e-19	-6.1775e-17	0
    Cl(f):	-0.00400823	-0.0041383	0.000130076	0
    Cl(r):	0.00400823	0.0041383	-0.000130076	0
    CmPitch:	-0.00400823	-0.0041383	0.000130076	0
    CmRoll:	-0.0378152	-0.037793	-2.22061e-05	0
    CmYaw:	-13.801	-13.7887	-0.0123037	0
    Cs:	2.1479	0.00126131	2.14664	0
    Cs(f):	-12.7271	-13.7881	1.06102	0
    Cs(r):	14.875	13.7894	1.08563	0

    writing force and moment coefficient files.

Time = 493

smoothSolver:  Solving for Ux, Initial residual = 5.19609e-06, Final residual = 1.58851e-07, No Iterations 2
smoothSolver:  Solving for Uy, Initial residual = 1.72775e-06, Final residual = 8.66749e-08, No Iterations 2
GAMG:  Solving for p, Initial residual = 7.69292e-05, Final residual = 6.93456e-06, No Iterations 9
time step continuity errors : sum local = 4.23071e-08, global = 1.37773e-08, cumulative = 3.24249e-05
smoothSolver:  Solving for nuTilda, Initial residual = 0.00123895, Final residual = 2.99633e-06, No Iterations 2
bounding nuTilda, min: -0.00494267 max: 0.380265 average: 0.0101398
ExecutionTime = 7.43 s  ClockTime = 8 s

forceCoeffs forceCoeffs1 write:
    Coefficient	Total	Pressure	Viscous	Internal
    Cd:	-0.227679	0.00738702	-0.235066	0
    Cd(f):	-0.151653	-0.0340979	-0.117555	0
    Cd(r):	-0.0760261	0.0414849	-0.117511	0
    Cl:	-6.12305e-17	5.63978e-19	-6.17945e-17	0
    Cl(f):	-0.00400844	-0.00413849	0.000130053	0
    Cl(r):	0.00400844	0.00413849	-0.000130053	0
    CmPitch:	-0.00400844	-0.00413849	0.000130053	0
    CmRoll:	-0.0378136	-0.0377914	-2.2208e-05	0
    CmYaw:	-13.8016	-13.7893	-0.012302	0
    Cs:	2.14781	0.00126142	2.14655	0
    Cs(f):	-12.7277	-13.7886	1.06097	0
    Cs(r):	14.8755	13.7899	1.08558	0

    writing force and moment coefficient files.

Time = 494

smoothSolver:  Solving for Ux, Initial residual = 5.46523e-06, Final residual = 1.70213e-07, No Iterations 2
smoothSolver:  Solving for Uy, Initial residual = 1.6532e-06, Final residual = 8.2456e-08, No Iterations 2
GAMG:  Solving for p, Initial residual = 7.3551e-05, Final residual = 6.94293e-06, No Iterations 9
time step continuity errors : sum local = 4.23512e-08, global = -1.44906e-08, cumulative = 3.24104e-05
smoothSolver:  Solving for nuTilda, Initial residual = 0.0012015, Final residual = 3.82955e-06, No Iterations 2
bounding nuTilda, min: -0.00658879 max: 0.380265 average: 0.0101358
ExecutionTime = 7.45 s  ClockTime = 8 s

forceCoeffs forceCoeffs1 write:
    Coefficient	Total	Pressure	Viscous	Internal
    Cd:	-0.227666	0.00738827	-0.235055	0
    Cd(f):	-0.151649	-0.034099	-0.11755	0
    Cd(r):	-0.0760179	0.0414872	-0.117505	0
    Cl:	-6.12148e-17	5.60627e-19	-6.17754e-17	0
    Cl(f):	-0.00400821	-0.00413829	0.000130075	0
    Cl(r):	0.00400821	0.00413829	-0.000130075	0
    CmPitch:	-0.00400821	-0.00413829	0.000130075	0
    CmRoll:	-0.0378153	-0.0377931	-2.22062e-05	0
    CmYaw:	-13.801	-13.7887	-0.0123037	0
    Cs:	2.14791	0.00126131	2.14665	0
    Cs(f):	-12.7271	-13.7881	1.06102	0
    Cs(r):	14.875	13.7893	1.08563	0

    writing force and moment coefficient files.

Time = 495

smoothSolver:  Solving for Ux, Initial residual = 5.17698e-06, Final residual = 1.65024e-07, No Iterations 2
smoothSolver:  Solving for Uy, Initial residual = 1.74578e-06, Final residual = 9.02588e-08, No Iterations 2
GAMG:  Solving for p, Initial residual = 7.71432e-05, Final residual = 7.13504e-06, No Iterations 9
time step continuity errors : sum local = 4.35304e-08, global = 1.47224e-08, cumulative = 3.24251e-05
smoothSolver:  Solving for nuTilda, Initial residual = 0.00120495, Final residual = 2.99822e-06, No Iterations 2
bounding nuTilda, min: -0.00541725 max: 0.380265 average: 0.0101386
ExecutionTime = 7.46 s  ClockTime = 8 s

forceCoeffs forceCoeffs1 write:
    Coefficient	Total	Pressure	Viscous	Internal
    Cd:	-0.227679	0.00738702	-0.235066	0
    Cd(f):	-0.151653	-0.0340979	-0.117555	0
    Cd(r):	-0.0760259	0.0414849	-0.117511	0
    Cl:	-6.1231e-17	5.63978e-19	-6.1795e-17	0
    Cl(f):	-0.00400843	-0.00413849	0.000130053	0
    Cl(r):	0.00400843	0.00413849	-0.000130053	0
    CmPitch:	-0.00400843	-0.00413849	0.000130053	0
    CmRoll:	-0.0378136	-0.0377914	-2.2208e-05	0
    CmYaw:	-13.8016	-13.7893	-0.0123019	0
    Cs:	2.14781	0.00126142	2.14655	0
    Cs(f):	-12.7277	-13.7887	1.06097	0
    Cs(r):	14.8755	13.7899	1.08558	0

    writing force and moment coefficient files.

Time = 496

smoothSolver:  Solving for Ux, Initial residual = 5.35486e-06, Final residual = 1.62652e-07, No Iterations 2
smoothSolver:  Solving for Uy, Initial residual = 1.65327e-06, Final residual = 7.97883e-08, No Iterations 2
GAMG:  Solving for p, Initial residual = 7.41849e-05, Final residual = 7.07884e-06, No Iterations 9
time step continuity errors : sum local = 4.31802e-08, global = -1.32265e-08, cumulative = 3.24119e-05
smoothSolver:  Solving for nuTilda, Initial residual = 0.00124148, Final residual = 3.79382e-06, No Iterations 2
bounding nuTilda, min: -0.00659036 max: 0.380266 average: 0.0101363
ExecutionTime = 7.47 s  ClockTime = 8 s

forceCoeffs forceCoeffs1 write:
    Coefficient	Total	Pressure	Viscous	Internal
    Cd:	-0.227667	0.00738828	-0.235055	0
    Cd(f):	-0.151649	-0.0340989	-0.11755	0
    Cd(r):	-0.0760183	0.0414872	-0.117506	0
    Cl:	-6.1215e-17	5.60625e-19	-6.17757e-17	0
    Cl(f):	-0.00400822	-0.0041383	0.000130075	0
    Cl(r):	0.00400822	0.0041383	-0.000130075	0
    CmPitch:	-0.00400822	-0.0041383	0.000130075	0
    CmRoll:	-0.0378153	-0.0377931	-2.22061e-05	0
    CmYaw:	-13.8011	-13.7887	-0.0123037	0
    Cs:	2.14791	0.00126131	2.14665	0
    Cs(f):	-12.7271	-13.7881	1.06102	0
    Cs(r):	14.875	13.7894	1.08563	0

    writing force and moment coefficient files.

Time = 497

smoothSolver:  Solving for Ux, Initial residual = 5.04694e-06, Final residual = 1.66486e-07, No Iterations 2
smoothSolver:  Solving for Uy, Initial residual = 1.68029e-06, Final residual = 8.99518e-08, No Iterations 2
GAMG:  Solving for p, Initial residual = 7.38603e-05, Final residual = 6.91079e-06, No Iterations 9
time step continuity errors : sum local = 4.21621e-08, global = 1.23378e-08, cumulative = 3.24242e-05
smoothSolver:  Solving for nuTilda, Initial residual = 0.00122328, Final residual = 3.04416e-06, No Iterations 2
bounding nuTilda, min: -0.00494269 max: 0.380266 average: 0.0101398
ExecutionTime = 7.49 s  ClockTime = 8 s

forceCoeffs forceCoeffs1 write:
    Coefficient	Total	Pressure	Viscous	Internal
    Cd:	-0.22768	0.00738703	-0.235067	0
    Cd(f):	-0.151654	-0.0340979	-0.117556	0
    Cd(r):	-0.0760265	0.0414849	-0.117511	0
    Cl:	-6.12306e-17	5.63973e-19	-6.17946e-17	0
    Cl(f):	-0.00400845	-0.0041385	0.000130053	0
    Cl(r):	0.00400845	0.0041385	-0.000130053	0
    CmPitch:	-0.00400845	-0.0041385	0.000130053	0
    CmRoll:	-0.0378136	-0.0377914	-2.22079e-05	0
    CmYaw:	-13.8016	-13.7893	-0.0123019	0
    Cs:	2.14781	0.00126141	2.14655	0
    Cs(f):	-12.7277	-13.7887	1.06097	0
    Cs(r):	14.8755	13.7899	1.08558	0

    writing force and moment coefficient files.

Time = 498

smoothSolver:  Solving for Ux, Initial residual = 5.27396e-06, Final residual = 1.64104e-07, No Iterations 2
smoothSolver:  Solving for Uy, Initial residual = 1.65607e-06, Final residual = 8.1859e-08, No Iterations 2
GAMG:  Solving for p, Initial residual = 7.52123e-05, Final residual = 6.73481e-06, No Iterations 9
time step continuity errors : sum local = 4.10818e-08, global = -1.26953e-08, cumulative = 3.24115e-05
smoothSolver:  Solving for nuTilda, Initial residual = 0.001186, Final residual = 3.77447e-06, No Iterations 2
bounding nuTilda, min: -0.00658884 max: 0.380266 average: 0.0101345
ExecutionTime = 7.5 s  ClockTime = 8 s

forceCoeffs forceCoeffs1 write:
    Coefficient	Total	Pressure	Viscous	Internal
    Cd:	-0.227668	0.00738829	-0.235056	0
    Cd(f):	-0.151649	-0.0340989	-0.11755	0
    Cd(r):	-0.0760186	0.0414872	-0.117506	0
    Cl:	-6.12143e-17	5.60623e-19	-6.17749e-17	0
    Cl(f):	-0.00400823	-0.00413831	0.000130076	0
    Cl(r):	0.00400823	0.00413831	-0.000130076	0
    CmPitch:	-0.00400823	-0.00413831	0.000130076	0
    CmRoll:	-0.0378152	-0.037793	-2.2206e-05	0
    CmYaw:	-13.801	-13.7887	-0.0123037	0
    Cs:	2.14791	0.0012613	2.14664	0
    Cs(f):	-12.7271	-13.7881	1.06102	0
    Cs(r):	14.875	13.7894	1.08563	0

    writing force and moment coefficient files.

Time = 499

smoothSolver:  Solving for Ux, Initial residual = 5.2223e-06, Final residual = 1.6367e-07, No Iterations 2
smoothSolver:  Solving for Uy, Initial residual = 1.6928e-06, Final residual = 8.66801e-08, No Iterations 2
GAMG:  Solving for p, Initial residual = 7.70377e-05, Final residual = 6.88113e-06, No Iterations 9
time step continuity errors : sum local = 4.19813e-08, global = 1.32193e-08, cumulative = 3.24247e-05
smoothSolver:  Solving for nuTilda, Initial residual = 0.00123594, Final residual = 3.00355e-06, No Iterations 2
bounding nuTilda, min: -0.00494552 max: 0.380266 average: 0.0101394
ExecutionTime = 7.52 s  ClockTime = 8 s

forceCoeffs forceCoeffs1 write:
    Coefficient	Total	Pressure	Viscous	Internal
    Cd:	-0.22768	0.00738704	-0.235067	0
    Cd(f):	-0.151654	-0.0340978	-0.117556	0
    Cd(r):	-0.0760265	0.0414849	-0.117511	0
    Cl:	-6.12299e-17	5.6397e-19	-6.17939e-17	0
    Cl(f):	-0.00400845	-0.00413851	0.000130054	0
    Cl(r):	0.00400845	0.00413851	-0.000130054	0
    CmPitch:	-0.00400845	-0.00413851	0.000130054	0
    CmRoll:	-0.0378135	-0.0377913	-2.2208e-05	0
    CmYaw:	-13.8016	-13.7893	-0.012302	0
    Cs:	2.14781	0.00126141	2.14655	0
    Cs(f):	-12.7277	-13.7887	1.06097	0
    Cs(r):	14.8755	13.7899	1.08558	0

    writing force and moment coefficient files.

Time = 500

smoothSolver:  Solving for Ux, Initial residual = 5.36417e-06, Final residual = 1.68546e-07, No Iterations 2
smoothSolver:  Solving for Uy, Initial residual = 1.70804e-06, Final residual = 8.43209e-08, No Iterations 2
GAMG:  Solving for p, Initial residual = 7.50519e-05, Final residual = 6.83177e-06, No Iterations 9
time step continuity errors : sum local = 4.16732e-08, global = -1.31987e-08, cumulative = 3.24115e-05
smoothSolver:  Solving for nuTilda, Initial residual = 0.00122994, Final residual = 3.84277e-06, No Iterations 2
bounding nuTilda, min: -0.00659036 max: 0.380267 average: 0.0101364
ExecutionTime = 7.56 s  ClockTime = 8 s

forceCoeffs forceCoeffs1 write:
    Coefficient	Total	Pressure	Viscous	Internal
    Cd:	-0.227667	0.0073883	-0.235056	0
    Cd(f):	-0.151649	-0.0340989	-0.11755	0
    Cd(r):	-0.0760185	0.0414872	-0.117506	0
    Cl:	-6.12139e-17	5.60622e-19	-6.17745e-17	0
    Cl(f):	-0.00400823	-0.0041383	0.000130076	0
    Cl(r):	0.00400823	0.0041383	-0.000130076	0
    CmPitch:	-0.00400823	-0.0041383	0.000130076	0
    CmRoll:	-0.0378152	-0.037793	-2.22062e-05	0
    CmYaw:	-13.801	-13.7887	-0.0123038	0
    Cs:	2.1479	0.00126131	2.14664	0
    Cs(f):	-12.7271	-13.7881	1.06102	0
    Cs(r):	14.875	13.7893	1.08563	0

    writing force and moment coefficient files.

    functionObjects::momentumError momErr writing field: momentError
    functionObjects::div contErr writing field: div(phi)
    functionObjects::turbulenceFields turbulenceFields1 writing field: turbulenceProperties:nut
    functionObjects::turbulenceFields turbulenceFields1 writing field: turbulenceProperties:nuEff
    functionObjects::turbulenceFields turbulenceFields1 writing field: turbulenceProperties:k
    functionObjects::turbulenceFields turbulenceFields1 writing field: turbulenceProperties:R
    functionObjects::turbulenceFields turbulenceFields1 writing field: turbulenceProperties:I
    functionObjects::turbulenceFields turbulenceFields1 writing field: turbulenceProperties:L
    functionObjects::turbulenceFields turbulenceFields1 writing field: turbulenceProperties:devReff
    functionObjects::turbulenceFields turbulenceFields1 writing field: turbulenceProperties:epsilon

    functionObjects::mag mag1 writing field: magR
End

