/*---------------------------------------------------------------------------*\
| =========                 |                                                 |
| \\      /  F ield         | OpenFOAM: The Open Source CFD Toolbox           |
|  \\    /   O peration     | Version:  2206                                  |
|   \\  /    A nd           | Website:  www.openfoam.com                      |
|    \\/     M anipulation  |                                                 |
\*---------------------------------------------------------------------------*/
Build  : _76d719d1-20220624 OPENFOAM=2206 version=2206
Arch   : "LSB;label=32;scalar=64"
Exec   : pimpleFoam -parallel
Date   : Nov 26 2023
Time   : 08:04:27
Host   : MSI
PID    : 1184
I/O    : uncollated
Case   : /home/baqer/Git-hub-OpenFoam/inter-plus/kOmagaSST
nProcs : 6
Hosts  :
(
    (MSI 6)
)
Pstream initialized with:
    floatTransfer      : 0
    nProcsSimpleSum    : 0
    commsType          : nonBlocking
    polling iterations : 0
trapFpe: Floating point exception trapping enabled (FOAM_SIGFPE).
fileModificationChecking : Monitoring run-time modified files using timeStampMaster (fileModificationSkew 5, maxFileModificationPolls 20)
allowSystemOperations : Allowing user-supplied system call operations

// * * * * * * * * * * * * * * * * * * * * * * * * * * * * * * * * * * * * * //
Create time

Create mesh for time = 0


PIMPLE: Operating solver in PISO mode

Reading field p

Reading field U

Reading/calculating face flux field phi

Selecting incompressible transport model Newtonian
Selecting turbulence model type RAS
Selecting RAS turbulence model kOmegaSST
Selecting patchDistMethod meshWave
RAS
{
    RASModel        kOmegaSST;
    turbulence      on;
    printCoeffs     on;
    alphaK1         0.85;
    alphaK2         1;
    alphaOmega1     0.5;
    alphaOmega2     0.856;
    gamma1          0.555556;
    gamma2          0.44;
    beta1           0.075;
    beta2           0.0828;
    betaStar        0.09;
    a1              0.31;
    b1              1;
    c1              10;
    F3              false;
    decayControl    false;
    kInf            0;
    omegaInf        0;
}

No MRF models present

No finite volume options present
Courant Number mean: 4.01816 max: 235.123
wallShearStress wallShearStress1:
    processing wall patches: 
        wall

surfaceFieldValue averageWallShearStress:
    operation     = areaAverage


Courant Number mean: 0.170986 max: 10.0052

Starting time loop

Courant Number mean: 0.170986 max: 10.0052
deltaT = 0.00106383
Time = 0.00106383

PIMPLE: iteration 1
smoothSolver:  Solving for Ux, Initial residual = 1, Final residual = 6.21677e-06, No Iterations 11
smoothSolver:  Solving for Uy, Initial residual = 1, Final residual = 6.25474e-06, No Iterations 11
smoothSolver:  Solving for Uz, Initial residual = 1, Final residual = 5.07463e-06, No Iterations 9
DICPCG:  Solving for p, Initial residual = 1, Final residual = 0.0493837, No Iterations 600
DICPCG:  Solving for p, Initial residual = 0.0141173, Final residual = 0.000577928, No Iterations 5
time step continuity errors : sum local = 5.98251e-06, global = 1.40092e-07, cumulative = 1.40092e-07
DICPCG:  Solving for p, Initial residual = 0.00407572, Final residual = 0.000174036, No Iterations 11
DICPCG:  Solving for p, Initial residual = 0.00108279, Final residual = 5.38375e-05, No Iterations 586
time step continuity errors : sum local = 5.66679e-07, global = -6.53186e-09, cumulative = 1.3356e-07
DICPCG:  Solving for p, Initial residual = 0.00136597, Final residual = 6.23921e-05, No Iterations 8
DICPCG:  Solving for p, Initial residual = 0.000313267, Final residual = 8.22587e-07, No Iterations 596
time step continuity errors : sum local = 8.14398e-09, global = 5.5886e-11, cumulative = 1.33616e-07
smoothSolver:  Solving for omega, Initial residual = 0.0141599, Final residual = 6.58221e-06, No Iterations 5
bounding omega, min: -721.313 max: 2.93747e+06 average: 29130.6
smoothSolver:  Solving for k, Initial residual = 1, Final residual = 4.98585e-06, No Iterations 3
ExecutionTime = 12.3 s  ClockTime = 12 s

Courant Number mean: 0.170953 max: 10.0119
deltaT = 0.00106383
Time = 0.00212766

PIMPLE: iteration 1
smoothSolver:  Solving for Ux, Initial residual = 0.322967, Final residual = 5.27907e-06, No Iterations 8
smoothSolver:  Solving for Uy, Initial residual = 0.32296, Final residual = 5.26761e-06, No Iterations 8
smoothSolver:  Solving for Uz, Initial residual = 0.137084, Final residual = 8.19681e-06, No Iterations 3
DICPCG:  Solving for p, Initial residual = 0.00562846, Final residual = 0.000269644, No Iterations 595
DICPCG:  Solving for p, Initial residual = 0.0140182, Final residual = 0.000635911, No Iterations 3
time step continuity errors : sum local = 3.52895e-06, global = -1.43913e-07, cumulative = -1.02972e-08
DICPCG:  Solving for p, Initial residual = 0.00294319, Final residual = 0.000140823, No Iterations 11
DICPCG:  Solving for p, Initial residual = 0.000889081, Final residual = 3.83517e-05, No Iterations 593
time step continuity errors : sum local = 2.09634e-07, global = 1.98474e-09, cumulative = -8.31249e-09
DICPCG:  Solving for p, Initial residual = 0.00101465, Final residual = 4.57113e-05, No Iterations 6
DICPCG:  Solving for p, Initial residual = 0.000298916, Final residual = 9.50677e-07, No Iterations 604
time step continuity errors : sum local = 5.39565e-09, global = 6.26729e-11, cumulative = -8.24982e-09
smoothSolver:  Solving for omega, Initial residual = 0.0265605, Final residual = 1.34143e-06, No Iterations 2
bounding omega, min: -17.9039 max: 2.93747e+06 average: 21952.9
smoothSolver:  Solving for k, Initial residual = 0.114779, Final residual = 6.40854e-07, No Iterations 3
ExecutionTime = 22.81 s  ClockTime = 23 s

Courant Number mean: 0.170626 max: 10.0259
deltaT = 0.00106383
Time = 0.00319149

PIMPLE: iteration 1
smoothSolver:  Solving for Ux, Initial residual = 0.145286, Final residual = 4.25428e-06, No Iterations 7
smoothSolver:  Solving for Uy, Initial residual = 0.145858, Final residual = 4.22395e-06, No Iterations 7
smoothSolver:  Solving for Uz, Initial residual = 0.0557182, Final residual = 2.55958e-06, No Iterations 3
DICPCG:  Solving for p, Initial residual = 0.00487207, Final residual = 0.000226332, No Iterations 595
DICPCG:  Solving for p, Initial residual = 0.00503718, Final residual = 0.000231584, No Iterations 3
time step continuity errors : sum local = 1.00187e-06, global = -3.87725e-08, cumulative = -4.70223e-08
DICPCG:  Solving for p, Initial residual = 0.00133979, Final residual = 6.11939e-05, No Iterations 11
DICPCG:  Solving for p, Initial residual = 0.000390575, Final residual = 1.87176e-05, No Iterations 587
time step continuity errors : sum local = 8.05541e-08, global = -6.17982e-10, cumulative = -4.76403e-08
DICPCG:  Solving for p, Initial residual = 0.000446207, Final residual = 1.82902e-05, No Iterations 5
DICPCG:  Solving for p, Initial residual = 0.000146571, Final residual = 9.733e-07, No Iterations 612
time step continuity errors : sum local = 4.25131e-09, global = -3.62459e-12, cumulative = -4.76439e-08
smoothSolver:  Solving for omega, Initial residual = 0.00122359, Final residual = 7.25976e-06, No Iterations 2
bounding omega, min: -19.7364 max: 2.93746e+06 average: 23831.8
smoothSolver:  Solving for k, Initial residual = 0.273711, Final residual = 4.23856e-07, No Iterations 3
ExecutionTime = 33.58 s  ClockTime = 33 s

Courant Number mean: 0.170383 max: 10.0464
deltaT = 0.00106383
Time = 0.00425532

PIMPLE: iteration 1
smoothSolver:  Solving for Ux, Initial residual = 0.0857347, Final residual = 5.8569e-06, No Iterations 6
smoothSolver:  Solving for Uy, Initial residual = 0.084197, Final residual = 5.84966e-06, No Iterations 6
smoothSolver:  Solving for Uz, Initial residual = 0.0335501, Final residual = 1.37114e-06, No Iterations 3
DICPCG:  Solving for p, Initial residual = 0.00319638, Final residual = 0.000139187, No Iterations 598
DICPCG:  Solving for p, Initial residual = 0.0035646, Final residual = 0.000147825, No Iterations 3
time step continuity errors : sum local = 5.25337e-07, global = -2.25839e-08, cumulative = -7.02277e-08
DICPCG:  Solving for p, Initial residual = 0.000861033, Final residual = 4.26718e-05, No Iterations 14
DICPCG:  Solving for p, Initial residual = 0.000260556, Final residual = 1.12747e-05, No Iterations 584
time step continuity errors : sum local = 3.99242e-08, global = -4.36511e-11, cumulative = -7.02714e-08
DICPCG:  Solving for p, Initial residual = 0.000294409, Final residual = 1.21161e-05, No Iterations 5
DICPCG:  Solving for p, Initial residual = 9.19846e-05, Final residual = 9.4305e-07, No Iterations 607
time step continuity errors : sum local = 3.37258e-09, global = 2.45655e-11, cumulative = -7.02468e-08
smoothSolver:  Solving for omega, Initial residual = 0.00264529, Final residual = 5.02307e-07, No Iterations 2
bounding omega, min: -18.0729 max: 2.93746e+06 average: 22255.6
smoothSolver:  Solving for k, Initial residual = 0.21424, Final residual = 2.95173e-07, No Iterations 3
ExecutionTime = 43.15 s  ClockTime = 43 s

Courant Number mean: 0.170198 max: 10.0695
deltaT = 0.00105214
Time = 0.00530746

PIMPLE: iteration 1
smoothSolver:  Solving for Ux, Initial residual = 0.0574787, Final residual = 9.28352e-06, No Iterations 5
smoothSolver:  Solving for Uy, Initial residual = 0.0559486, Final residual = 9.29628e-06, No Iterations 5
smoothSolver:  Solving for Uz, Initial residual = 0.0233534, Final residual = 8.79642e-07, No Iterations 3
DICPCG:  Solving for p, Initial residual = 0.00299055, Final residual = 0.000130163, No Iterations 598
DICPCG:  Solving for p, Initial residual = 0.00259953, Final residual = 0.000112977, No Iterations 3
time step continuity errors : sum local = 3.44134e-07, global = -1.5331e-08, cumulative = -8.55779e-08
DICPCG:  Solving for p, Initial residual = 0.000687859, Final residual = 3.25806e-05, No Iterations 14
DICPCG:  Solving for p, Initial residual = 0.000222549, Final residual = 1.00274e-05, No Iterations 587
time step continuity errors : sum local = 3.04655e-08, global = 2.2774e-10, cumulative = -8.53501e-08
DICPCG:  Solving for p, Initial residual = 0.000233651, Final residual = 1.0734e-05, No Iterations 5
DICPCG:  Solving for p, Initial residual = 8.83383e-05, Final residual = 8.69662e-07, No Iterations 604
time step continuity errors : sum local = 2.66018e-09, global = 7.12012e-12, cumulative = -8.5343e-08
smoothSolver:  Solving for omega, Initial residual = 0.000652992, Final residual = 2.37499e-06, No Iterations 2
bounding omega, min: -35.5169 max: 2.93746e+06 average: 23175.8
smoothSolver:  Solving for k, Initial residual = 0.141578, Final residual = 7.61507e-06, No Iterations 2
ExecutionTime = 52.54 s  ClockTime = 52 s

Courant Number mean: 0.168177 max: 9.98071
deltaT = 0.00105214
Time = 0.0063596

PIMPLE: iteration 1
smoothSolver:  Solving for Ux, Initial residual = 0.0424995, Final residual = 6.95506e-06, No Iterations 5
smoothSolver:  Solving for Uy, Initial residual = 0.0422412, Final residual = 6.9708e-06, No Iterations 5
smoothSolver:  Solving for Uz, Initial residual = 0.0182193, Final residual = 8.45126e-06, No Iterations 2
DICPCG:  Solving for p, Initial residual = 0.00310888, Final residual = 0.000143058, No Iterations 599
DICPCG:  Solving for p, Initial residual = 0.00203373, Final residual = 0.000100948, No Iterations 4
time step continuity errors : sum local = 2.76082e-07, global = -1.20926e-08, cumulative = -9.74356e-08
DICPCG:  Solving for p, Initial residual = 0.000635322, Final residual = 2.84519e-05, No Iterations 12
DICPCG:  Solving for p, Initial residual = 0.000212874, Final residual = 9.93592e-06, No Iterations 588
time step continuity errors : sum local = 2.71213e-08, global = 2.11813e-10, cumulative = -9.72238e-08
DICPCG:  Solving for p, Initial residual = 0.000213054, Final residual = 9.51456e-06, No Iterations 6
DICPCG:  Solving for p, Initial residual = 9.0345e-05, Final residual = 8.78998e-07, No Iterations 613
time step continuity errors : sum local = 2.41143e-09, global = -2.43301e-11, cumulative = -9.72481e-08
smoothSolver:  Solving for omega, Initial residual = 0.000951069, Final residual = 4.09711e-07, No Iterations 2
bounding omega, min: -12.3877 max: 2.93746e+06 average: 22459.9
smoothSolver:  Solving for k, Initial residual = 0.0859887, Final residual = 5.0491e-06, No Iterations 2
ExecutionTime = 60.99 s  ClockTime = 61 s

Courant Number mean: 0.168045 max: 9.99976
deltaT = 0.00105214
Time = 0.00741174

PIMPLE: iteration 1
smoothSolver:  Solving for Ux, Initial residual = 0.0332701, Final residual = 5.46003e-06, No Iterations 5
smoothSolver:  Solving for Uy, Initial residual = 0.0335985, Final residual = 5.46919e-06, No Iterations 5
smoothSolver:  Solving for Uz, Initial residual = 0.0150186, Final residual = 6.53203e-06, No Iterations 2
DICPCG:  Solving for p, Initial residual = 0.00221712, Final residual = 0.000106227, No Iterations 601
DICPCG:  Solving for p, Initial residual = 0.00165573, Final residual = 8.19224e-05, No Iterations 3
time step continuity errors : sum local = 2.05668e-07, global = -9.03558e-09, cumulative = -1.06284e-07
DICPCG:  Solving for p, Initial residual = 0.000577106, Final residual = 2.65771e-05, No Iterations 9
DICPCG:  Solving for p, Initial residual = 0.000203585, Final residual = 1.00721e-05, No Iterations 13
time step continuity errors : sum local = 2.52485e-08, global = 2.37778e-09, cumulative = -1.03906e-07
DICPCG:  Solving for p, Initial residual = 0.000177581, Final residual = 8.35487e-06, No Iterations 8
DICPCG:  Solving for p, Initial residual = 9.19164e-05, Final residual = 8.87003e-07, No Iterations 603
time step continuity errors : sum local = 2.22367e-09, global = 2.60756e-11, cumulative = -1.0388e-07
smoothSolver:  Solving for omega, Initial residual = 0.000410328, Final residual = 9.79508e-07, No Iterations 2
bounding omega, min: -42.5157 max: 2.93746e+06 average: 22940.9
smoothSolver:  Solving for k, Initial residual = 0.0519608, Final residual = 3.60922e-06, No Iterations 2
ExecutionTime = 67.06 s  ClockTime = 67 s

Courant Number mean: 0.167926 max: 10.015
deltaT = 0.00105214
Time = 0.00846388

PIMPLE: iteration 1
smoothSolver:  Solving for Ux, Initial residual = 0.0270504, Final residual = 4.65978e-06, No Iterations 5
smoothSolver:  Solving for Uy, Initial residual = 0.0274859, Final residual = 4.65543e-06, No Iterations 5
smoothSolver:  Solving for Uz, Initial residual = 0.0128173, Final residual = 5.27833e-06, No Iterations 2
DICPCG:  Solving for p, Initial residual = 0.00195525, Final residual = 9.46568e-05, No Iterations 602
DICPCG:  Solving for p, Initial residual = 0.00138512, Final residual = 6.75763e-05, No Iterations 3
time step continuity errors : sum local = 1.58239e-07, global = -6.48443e-09, cumulative = -1.10364e-07
DICPCG:  Solving for p, Initial residual = 0.000524853, Final residual = 2.42629e-05, No Iterations 8
DICPCG:  Solving for p, Initial residual = 0.000190182, Final residual = 9.22746e-06, No Iterations 11
time step continuity errors : sum local = 2.15807e-08, global = 2.16896e-09, cumulative = -1.08195e-07
DICPCG:  Solving for p, Initial residual = 0.000164049, Final residual = 7.81278e-06, No Iterations 8
DICPCG:  Solving for p, Initial residual = 8.70052e-05, Final residual = 9.25722e-07, No Iterations 592
time step continuity errors : sum local = 2.16519e-09, global = -8.17549e-12, cumulative = -1.08203e-07
smoothSolver:  Solving for omega, Initial residual = 0.000439875, Final residual = 9.60548e-06, No Iterations 1
bounding omega, min: -9.34183 max: 2.93746e+06 average: 22598.6
smoothSolver:  Solving for k, Initial residual = 0.0344655, Final residual = 3.09501e-06, No Iterations 2
ExecutionTime = 72.94 s  ClockTime = 73 s

Courant Number mean: 0.167816 max: 10.0261
deltaT = 0.00105214
Time = 0.00951602

PIMPLE: iteration 1
smoothSolver:  Solving for Ux, Initial residual = 0.0223536, Final residual = 4.24785e-06, No Iterations 5
smoothSolver:  Solving for Uy, Initial residual = 0.0226869, Final residual = 4.24544e-06, No Iterations 5
smoothSolver:  Solving for Uz, Initial residual = 0.0111879, Final residual = 4.40019e-06, No Iterations 2
DICPCG:  Solving for p, Initial residual = 0.00160364, Final residual = 6.99639e-05, No Iterations 604
DICPCG:  Solving for p, Initial residual = 0.00119084, Final residual = 4.79587e-05, No Iterations 4
time step continuity errors : sum local = 1.05839e-07, global = -4.08493e-09, cumulative = -1.12288e-07
DICPCG:  Solving for p, Initial residual = 0.000473042, Final residual = 2.16307e-05, No Iterations 7
DICPCG:  Solving for p, Initial residual = 0.000172103, Final residual = 8.50578e-06, No Iterations 10
time step continuity errors : sum local = 1.87512e-08, global = 2.85075e-09, cumulative = -1.09438e-07
DICPCG:  Solving for p, Initial residual = 0.000156329, Final residual = 7.69281e-06, No Iterations 577
DICPCG:  Solving for p, Initial residual = 0.00010615, Final residual = 9.71428e-07, No Iterations 40
time step continuity errors : sum local = 2.1486e-09, global = 1.14437e-10, cumulative = -1.09323e-07
smoothSolver:  Solving for omega, Initial residual = 0.000240479, Final residual = 7.77374e-06, No Iterations 1
bounding omega, min: -44.558 max: 2.93746e+06 average: 22824.1
smoothSolver:  Solving for k, Initial residual = 0.0248644, Final residual = 2.22633e-06, No Iterations 2
ExecutionTime = 78.98 s  ClockTime = 79 s

Courant Number mean: 0.167714 max: 10.0337
deltaT = 0.00105214
Time = 0.0105682

PIMPLE: iteration 1
smoothSolver:  Solving for Ux, Initial residual = 0.0188028, Final residual = 3.97751e-06, No Iterations 5
smoothSolver:  Solving for Uy, Initial residual = 0.0190774, Final residual = 3.9727e-06, No Iterations 5
smoothSolver:  Solving for Uz, Initial residual = 0.0099083, Final residual = 3.76264e-06, No Iterations 2
DICPCG:  Solving for p, Initial residual = 0.00137324, Final residual = 6.16638e-05, No Iterations 604
DICPCG:  Solving for p, Initial residual = 0.00105421, Final residual = 4.64184e-05, No Iterations 4
time step continuity errors : sum local = 9.73654e-08, global = -3.58823e-09, cumulative = -1.12911e-07
DICPCG:  Solving for p, Initial residual = 0.000425885, Final residual = 1.93445e-05, No Iterations 7
DICPCG:  Solving for p, Initial residual = 0.000153656, Final residual = 6.9725e-06, No Iterations 11
time step continuity errors : sum local = 1.46119e-08, global = 2.92826e-09, cumulative = -1.09983e-07
DICPCG:  Solving for p, Initial residual = 0.000138344, Final residual = 6.55909e-06, No Iterations 574
DICPCG:  Solving for p, Initial residual = 9.42157e-05, Final residual = 9.08651e-07, No Iterations 27
time step continuity errors : sum local = 1.90965e-09, global = 1.40801e-10, cumulative = -1.09842e-07
smoothSolver:  Solving for omega, Initial residual = 0.000204342, Final residual = 4.82392e-06, No Iterations 1
bounding omega, min: -10.2948 max: 2.93746e+06 average: 22678.5
smoothSolver:  Solving for k, Initial residual = 0.0191365, Final residual = 1.90259e-06, No Iterations 2
ExecutionTime = 84.91 s  ClockTime = 85 s

Courant Number mean: 0.167617 max: 10.037
deltaT = 0.00105214
Time = 0.0116203

PIMPLE: iteration 1
smoothSolver:  Solving for Ux, Initial residual = 0.0160594, Final residual = 3.73823e-06, No Iterations 5
smoothSolver:  Solving for Uy, Initial residual = 0.0162536, Final residual = 3.7349e-06, No Iterations 5
smoothSolver:  Solving for Uz, Initial residual = 0.00895262, Final residual = 3.28006e-06, No Iterations 2
DICPCG:  Solving for p, Initial residual = 0.00125443, Final residual = 5.73092e-05, No Iterations 604
DICPCG:  Solving for p, Initial residual = 0.000954027, Final residual = 4.31145e-05, No Iterations 4
time step continuity errors : sum local = 8.64387e-08, global = -2.96278e-09, cumulative = -1.12805e-07
DICPCG:  Solving for p, Initial residual = 0.00040022, Final residual = 1.85423e-05, No Iterations 7
DICPCG:  Solving for p, Initial residual = 0.000147043, Final residual = 7.27468e-06, No Iterations 11
time step continuity errors : sum local = 1.45731e-08, global = 2.66173e-09, cumulative = -1.10143e-07
DICPCG:  Solving for p, Initial residual = 0.000135585, Final residual = 6.28589e-06, No Iterations 575
DICPCG:  Solving for p, Initial residual = 8.93161e-05, Final residual = 9.72678e-07, No Iterations 45
time step continuity errors : sum local = 1.95341e-09, global = 6.08931e-11, cumulative = -1.10083e-07
smoothSolver:  Solving for omega, Initial residual = 0.000134126, Final residual = 3.69084e-06, No Iterations 1
bounding omega, min: -44.2682 max: 2.93746e+06 average: 22785.3
smoothSolver:  Solving for k, Initial residual = 0.0154756, Final residual = 1.6444e-06, No Iterations 2
ExecutionTime = 91.62 s  ClockTime = 91 s

Courant Number mean: 0.167526 max: 10.0363
deltaT = 0.00105214
Time = 0.0126724

PIMPLE: iteration 1
smoothSolver:  Solving for Ux, Initial residual = 0.013959, Final residual = 3.5222e-06, No Iterations 5
smoothSolver:  Solving for Uy, Initial residual = 0.0140499, Final residual = 3.51712e-06, No Iterations 5
smoothSolver:  Solving for Uz, Initial residual = 0.00820196, Final residual = 2.90428e-06, No Iterations 2
DICPCG:  Solving for p, Initial residual = 0.00114056, Final residual = 5.22473e-05, No Iterations 604
DICPCG:  Solving for p, Initial residual = 0.00085889, Final residual = 3.67509e-05, No Iterations 4
time step continuity errors : sum local = 7.07918e-08, global = -2.63538e-09, cumulative = -1.12718e-07
DICPCG:  Solving for p, Initial residual = 0.000369, Final residual = 1.76473e-05, No Iterations 7
DICPCG:  Solving for p, Initial residual = 0.000132421, Final residual = 6.563e-06, No Iterations 338
time step continuity errors : sum local = 1.26331e-08, global = 1.00459e-09, cumulative = -1.11713e-07
DICPCG:  Solving for p, Initial residual = 0.000126171, Final residual = 5.74717e-06, No Iterations 6
DICPCG:  Solving for p, Initial residual = 6.49006e-05, Final residual = 9.757e-07, No Iterations 608
time step continuity errors : sum local = 1.87977e-09, global = 5.1781e-12, cumulative = -1.11708e-07
smoothSolver:  Solving for omega, Initial residual = 0.000107619, Final residual = 2.526e-06, No Iterations 1
bounding omega, min: -11.8848 max: 2.93746e+06 average: 22721.2
smoothSolver:  Solving for k, Initial residual = 0.0130021, Final residual = 1.46979e-06, No Iterations 2
ExecutionTime = 99.01 s  ClockTime = 99 s

Courant Number mean: 0.167438 max: 10.0324
deltaT = 0.00105214
Time = 0.0137246

PIMPLE: iteration 1
smoothSolver:  Solving for Ux, Initial residual = 0.0122414, Final residual = 9.56807e-06, No Iterations 4
smoothSolver:  Solving for Uy, Initial residual = 0.012305, Final residual = 9.54689e-06, No Iterations 4
smoothSolver:  Solving for Uz, Initial residual = 0.00757631, Final residual = 2.60237e-06, No Iterations 2
DICPCG:  Solving for p, Initial residual = 0.00105827, Final residual = 4.76547e-05, No Iterations 604
DICPCG:  Solving for p, Initial residual = 0.000792855, Final residual = 3.32714e-05, No Iterations 4
time step continuity errors : sum local = 6.17977e-08, global = -1.45856e-09, cumulative = -1.13167e-07
DICPCG:  Solving for p, Initial residual = 0.000348847, Final residual = 1.68996e-05, No Iterations 7
DICPCG:  Solving for p, Initial residual = 0.000130211, Final residual = 6.49154e-06, No Iterations 567
time step continuity errors : sum local = 1.20495e-08, global = 2.32313e-10, cumulative = -1.12934e-07
DICPCG:  Solving for p, Initial residual = 0.000125774, Final residual = 5.3633e-06, No Iterations 5
DICPCG:  Solving for p, Initial residual = 6.54198e-05, Final residual = 9.89436e-07, No Iterations 70
time step continuity errors : sum local = 1.83971e-09, global = 2.43011e-10, cumulative = -1.12691e-07
smoothSolver:  Solving for omega, Initial residual = 7.82651e-05, Final residual = 1.90027e-06, No Iterations 1
bounding omega, min: -45.0122 max: 2.93746e+06 average: 22773.1
smoothSolver:  Solving for k, Initial residual = 0.0112467, Final residual = 1.32193e-06, No Iterations 2
ExecutionTime = 105.3 s  ClockTime = 105 s

Courant Number mean: 0.167354 max: 10.0255
deltaT = 0.00105214
Time = 0.0147767

PIMPLE: iteration 1
smoothSolver:  Solving for Ux, Initial residual = 0.0110765, Final residual = 9.19196e-06, No Iterations 4
smoothSolver:  Solving for Uy, Initial residual = 0.0110921, Final residual = 9.16808e-06, No Iterations 4
smoothSolver:  Solving for Uz, Initial residual = 0.00704389, Final residual = 2.35575e-06, No Iterations 2
DICPCG:  Solving for p, Initial residual = 0.00100506, Final residual = 4.99739e-05, No Iterations 603
DICPCG:  Solving for p, Initial residual = 0.000730903, Final residual = 3.41477e-05, No Iterations 4
time step continuity errors : sum local = 6.13808e-08, global = -1.38376e-09, cumulative = -1.14075e-07
DICPCG:  Solving for p, Initial residual = 0.000336904, Final residual = 1.63506e-05, No Iterations 7
DICPCG:  Solving for p, Initial residual = 0.000125526, Final residual = 5.69262e-06, No Iterations 11
time step continuity errors : sum local = 1.02267e-08, global = 1.72125e-09, cumulative = -1.12354e-07
DICPCG:  Solving for p, Initial residual = 0.000113961, Final residual = 5.59132e-06, No Iterations 7
DICPCG:  Solving for p, Initial residual = 6.22769e-05, Final residual = 9.22239e-07, No Iterations 576
time step continuity errors : sum local = 1.65685e-09, global = -5.2837e-12, cumulative = -1.12359e-07
smoothSolver:  Solving for omega, Initial residual = 6.29248e-05, Final residual = 1.37825e-06, No Iterations 1
bounding omega, min: -6.0399 max: 2.93746e+06 average: 22745.3
smoothSolver:  Solving for k, Initial residual = 0.00994963, Final residual = 1.21415e-06, No Iterations 2
ExecutionTime = 111.81 s  ClockTime = 112 s

Courant Number mean: 0.167273 max: 10.016
deltaT = 0.00105214
Time = 0.0158289

PIMPLE: iteration 1
smoothSolver:  Solving for Ux, Initial residual = 0.0103893, Final residual = 8.8432e-06, No Iterations 4
smoothSolver:  Solving for Uy, Initial residual = 0.0103648, Final residual = 8.81375e-06, No Iterations 4
smoothSolver:  Solving for Uz, Initial residual = 0.006587, Final residual = 2.15008e-06, No Iterations 2
DICPCG:  Solving for p, Initial residual = 0.000987299, Final residual = 4.42107e-05, No Iterations 603
DICPCG:  Solving for p, Initial residual = 0.000689708, Final residual = 3.15752e-05, No Iterations 4
time step continuity errors : sum local = 5.50385e-08, global = -8.77294e-10, cumulative = -1.13236e-07
DICPCG:  Solving for p, Initial residual = 0.000319851, Final residual = 1.31724e-05, No Iterations 9
DICPCG:  Solving for p, Initial residual = 0.000123057, Final residual = 6.11023e-06, No Iterations 24
time step continuity errors : sum local = 1.06449e-08, global = 1.18616e-09, cumulative = -1.1205e-07
DICPCG:  Solving for p, Initial residual = 0.000112338, Final residual = 5.07236e-06, No Iterations 6
DICPCG:  Solving for p, Initial residual = 6.33459e-05, Final residual = 9.92305e-07, No Iterations 600
time step continuity errors : sum local = 1.72881e-09, global = -1.83863e-11, cumulative = -1.12069e-07
smoothSolver:  Solving for omega, Initial residual = 4.9179e-05, Final residual = 1.05029e-06, No Iterations 1
bounding omega, min: -44.8844 max: 2.93746e+06 average: 22771.4
smoothSolver:  Solving for k, Initial residual = 0.00895628, Final residual = 1.12166e-06, No Iterations 2
ExecutionTime = 117.84 s  ClockTime = 118 s

Courant Number mean: 0.167194 max: 10.0041
deltaT = 0.00105214
Time = 0.016881

PIMPLE: iteration 1
smoothSolver:  Solving for Ux, Initial residual = 0.0100033, Final residual = 8.52115e-06, No Iterations 4
smoothSolver:  Solving for Uy, Initial residual = 0.00981665, Final residual = 8.48626e-06, No Iterations 4
smoothSolver:  Solving for Uz, Initial residual = 0.00618587, Final residual = 1.97604e-06, No Iterations 2
DICPCG:  Solving for p, Initial residual = 0.000933818, Final residual = 4.5069e-05, No Iterations 602
DICPCG:  Solving for p, Initial residual = 0.000646007, Final residual = 2.44022e-05, No Iterations 5
time step continuity errors : sum local = 4.13628e-08, global = -8.25789e-10, cumulative = -1.12894e-07
DICPCG:  Solving for p, Initial residual = 0.000312515, Final residual = 1.31079e-05, No Iterations 9
DICPCG:  Solving for p, Initial residual = 0.000121831, Final residual = 5.80048e-06, No Iterations 13
time step continuity errors : sum local = 9.82744e-09, global = 1.37935e-09, cumulative = -1.11515e-07
DICPCG:  Solving for p, Initial residual = 0.000111695, Final residual = 4.67807e-06, No Iterations 5
DICPCG:  Solving for p, Initial residual = 6.05396e-05, Final residual = 9.96677e-07, No Iterations 583
time step continuity errors : sum local = 1.68869e-09, global = -2.71792e-11, cumulative = -1.11542e-07
smoothSolver:  Solving for omega, Initial residual = 4.07188e-05, Final residual = 8.04075e-07, No Iterations 1
bounding omega, min: -3.03107 max: 2.93746e+06 average: 22759.9
smoothSolver:  Solving for k, Initial residual = 0.00816871, Final residual = 1.05333e-06, No Iterations 2
ExecutionTime = 124.16 s  ClockTime = 124 s

Courant Number mean: 0.167119 max: 9.99011
deltaT = 0.00105214
Time = 0.0179331

PIMPLE: iteration 1
smoothSolver:  Solving for Ux, Initial residual = 0.0098255, Final residual = 8.22321e-06, No Iterations 4
smoothSolver:  Solving for Uy, Initial residual = 0.00967518, Final residual = 8.18778e-06, No Iterations 4
smoothSolver:  Solving for Uz, Initial residual = 0.00583217, Final residual = 1.82703e-06, No Iterations 2
DICPCG:  Solving for p, Initial residual = 0.000902333, Final residual = 4.11083e-05, No Iterations 603
DICPCG:  Solving for p, Initial residual = 0.000611437, Final residual = 2.24517e-05, No Iterations 5
time step continuity errors : sum local = 3.70774e-08, global = -6.62927e-10, cumulative = -1.12205e-07
DICPCG:  Solving for p, Initial residual = 0.00030087, Final residual = 1.39203e-05, No Iterations 8
DICPCG:  Solving for p, Initial residual = 0.000118268, Final residual = 5.85546e-06, No Iterations 14
time step continuity errors : sum local = 9.66557e-09, global = 1.22343e-09, cumulative = -1.10982e-07
DICPCG:  Solving for p, Initial residual = 0.000108914, Final residual = 4.7815e-06, No Iterations 5
DICPCG:  Solving for p, Initial residual = 6.02856e-05, Final residual = 9.48492e-07, No Iterations 579
time step continuity errors : sum local = 1.56573e-09, global = 2.27357e-11, cumulative = -1.10959e-07
smoothSolver:  Solving for omega, Initial residual = 3.36945e-05, Final residual = 6.31659e-07, No Iterations 1
bounding omega, min: -45.1005 max: 2.93746e+06 average: 22773.5
smoothSolver:  Solving for k, Initial residual = 0.00752191, Final residual = 9.92231e-07, No Iterations 2
ExecutionTime = 130.35 s  ClockTime = 130 s

Courant Number mean: 0.167045 max: 9.97409
deltaT = 0.00105214
Time = 0.0189853

PIMPLE: iteration 1
smoothSolver:  Solving for Ux, Initial residual = 0.00962, Final residual = 7.94543e-06, No Iterations 4
smoothSolver:  Solving for Uy, Initial residual = 0.00949098, Final residual = 7.90941e-06, No Iterations 4
smoothSolver:  Solving for Uz, Initial residual = 0.00551692, Final residual = 1.69738e-06, No Iterations 2
DICPCG:  Solving for p, Initial residual = 0.000872739, Final residual = 4.25063e-05, No Iterations 602
DICPCG:  Solving for p, Initial residual = 0.000581721, Final residual = 2.31819e-05, No Iterations 5
time step continuity errors : sum local = 3.73644e-08, global = -5.62955e-10, cumulative = -1.11522e-07
DICPCG:  Solving for p, Initial residual = 0.000295633, Final residual = 1.37269e-05, No Iterations 8
DICPCG:  Solving for p, Initial residual = 0.000117381, Final residual = 5.7892e-06, No Iterations 11
time step continuity errors : sum local = 9.32721e-09, global = 1.23582e-09, cumulative = -1.10286e-07
DICPCG:  Solving for p, Initial residual = 0.000104326, Final residual = 4.28518e-06, No Iterations 5
DICPCG:  Solving for p, Initial residual = 5.75816e-05, Final residual = 8.57827e-07, No Iterations 577
time step continuity errors : sum local = 1.38213e-09, global = 2.66005e-11, cumulative = -1.1026e-07
smoothSolver:  Solving for omega, Initial residual = 2.90001e-05, Final residual = 5.18746e-07, No Iterations 1
bounding omega, min: -4.58894 max: 2.93746e+06 average: 22769.3
smoothSolver:  Solving for k, Initial residual = 0.00698403, Final residual = 9.648e-07, No Iterations 2
ExecutionTime = 136.62 s  ClockTime = 136 s

Courant Number mean: 0.166974 max: 9.95624
deltaT = 0.00105214
Time = 0.0200374

PIMPLE: iteration 1
smoothSolver:  Solving for Ux, Initial residual = 0.00944698, Final residual = 7.68931e-06, No Iterations 4
smoothSolver:  Solving for Uy, Initial residual = 0.00934133, Final residual = 7.65468e-06, No Iterations 4
smoothSolver:  Solving for Uz, Initial residual = 0.00523358, Final residual = 1.58429e-06, No Iterations 2
DICPCG:  Solving for p, Initial residual = 0.000850256, Final residual = 3.76772e-05, No Iterations 603
DICPCG:  Solving for p, Initial residual = 0.000550723, Final residual = 2.03366e-05, No Iterations 5
time step continuity errors : sum local = 3.20363e-08, global = -2.80458e-10, cumulative = -1.1054e-07
DICPCG:  Solving for p, Initial residual = 0.000283176, Final residual = 1.20518e-05, No Iterations 8
DICPCG:  Solving for p, Initial residual = 0.000113345, Final residual = 5.61879e-06, No Iterations 11
time step continuity errors : sum local = 8.84796e-09, global = 1.24954e-09, cumulative = -1.09291e-07
DICPCG:  Solving for p, Initial residual = 0.000102524, Final residual = 4.12642e-06, No Iterations 5
DICPCG:  Solving for p, Initial residual = 5.79662e-05, Final residual = 9.08737e-07, No Iterations 604
time step continuity errors : sum local = 1.43105e-09, global = 7.84031e-12, cumulative = -1.09283e-07
smoothSolver:  Solving for omega, Initial residual = 2.50927e-05, Final residual = 4.23657e-07, No Iterations 1
bounding omega, min: -45.1083 max: 2.93746e+06 average: 22776.7
smoothSolver:  Solving for k, Initial residual = 0.00653196, Final residual = 9.2696e-07, No Iterations 2
ExecutionTime = 142.67 s  ClockTime = 143 s

Courant Number mean: 0.166904 max: 9.93667
deltaT = 0.00105214
Time = 0.0210895

PIMPLE: iteration 1
smoothSolver:  Solving for Ux, Initial residual = 0.00923971, Final residual = 7.45684e-06, No Iterations 4
smoothSolver:  Solving for Uy, Initial residual = 0.00914915, Final residual = 7.42193e-06, No Iterations 4
smoothSolver:  Solving for Uz, Initial residual = 0.00497715, Final residual = 1.48499e-06, No Iterations 2
DICPCG:  Solving for p, Initial residual = 0.000819401, Final residual = 3.70754e-05, No Iterations 602
DICPCG:  Solving for p, Initial residual = 0.000528965, Final residual = 2.03676e-05, No Iterations 5
time step continuity errors : sum local = 3.14029e-08, global = -2.70245e-10, cumulative = -1.09553e-07
DICPCG:  Solving for p, Initial residual = 0.000279838, Final residual = 1.19073e-05, No Iterations 8
DICPCG:  Solving for p, Initial residual = 0.000114616, Final residual = 5.21774e-06, No Iterations 11
time step continuity errors : sum local = 8.04198e-09, global = 1.10313e-09, cumulative = -1.0845e-07
DICPCG:  Solving for p, Initial residual = 0.00010202, Final residual = 3.91685e-06, No Iterations 5
DICPCG:  Solving for p, Initial residual = 5.79771e-05, Final residual = 9.71157e-07, No Iterations 578
time step continuity errors : sum local = 1.49687e-09, global = -1.66617e-11, cumulative = -1.08466e-07
smoothSolver:  Solving for omega, Initial residual = 2.25091e-05, Final residual = 3.67295e-07, No Iterations 1
bounding omega, min: -2.00675 max: 2.93746e+06 average: 22775.7
smoothSolver:  Solving for k, Initial residual = 0.00614911, Final residual = 9.20022e-07, No Iterations 2
ExecutionTime = 150.04 s  ClockTime = 150 s

Courant Number mean: 0.166836 max: 9.91553
deltaT = 0.00106636
Time = 0.0221559

PIMPLE: iteration 1
smoothSolver:  Solving for Ux, Initial residual = 0.00919262, Final residual = 7.57534e-06, No Iterations 4
smoothSolver:  Solving for Uy, Initial residual = 0.00911755, Final residual = 7.53887e-06, No Iterations 4
smoothSolver:  Solving for Uz, Initial residual = 0.00480459, Final residual = 1.46764e-06, No Iterations 2
DICPCG:  Solving for p, Initial residual = 0.000867822, Final residual = 4.1428e-05, No Iterations 10
DICPCG:  Solving for p, Initial residual = 0.000278683, Final residual = 1.32694e-05, No Iterations 601
time step continuity errors : sum local = 2.0836e-08, global = -9.88746e-11, cumulative = -1.08565e-07
DICPCG:  Solving for p, Initial residual = 0.000510226, Final residual = 2.48283e-05, No Iterations 3
DICPCG:  Solving for p, Initial residual = 0.00012949, Final residual = 6.3738e-06, No Iterations 11
time step continuity errors : sum local = 9.7773e-09, global = 1.2129e-09, cumulative = -1.07352e-07
DICPCG:  Solving for p, Initial residual = 0.000103585, Final residual = 4.85611e-06, No Iterations 8
DICPCG:  Solving for p, Initial residual = 5.87371e-05, Final residual = 8.76833e-07, No Iterations 581
time step continuity errors : sum local = 1.34505e-09, global = -1.54914e-11, cumulative = -1.07368e-07
smoothSolver:  Solving for omega, Initial residual = 2.04054e-05, Final residual = 3.19349e-07, No Iterations 1
bounding omega, min: -45.5809 max: 2.93746e+06 average: 22780.2
smoothSolver:  Solving for k, Initial residual = 0.00589099, Final residual = 9.46193e-07, No Iterations 2
ExecutionTime = 158.98 s  ClockTime = 159 s

Courant Number mean: 0.169023 max: 10.0264
deltaT = 0.00106636
Time = 0.0232223

PIMPLE: iteration 1
smoothSolver:  Solving for Ux, Initial residual = 0.00897994, Final residual = 7.40116e-06, No Iterations 4
smoothSolver:  Solving for Uy, Initial residual = 0.00891268, Final residual = 7.3637e-06, No Iterations 4
smoothSolver:  Solving for Uz, Initial residual = 0.00458556, Final residual = 1.3858e-06, No Iterations 2
DICPCG:  Solving for p, Initial residual = 0.00076252, Final residual = 3.58726e-05, No Iterations 602
DICPCG:  Solving for p, Initial residual = 0.000502076, Final residual = 2.00736e-05, No Iterations 5
time step continuity errors : sum local = 3.02066e-08, global = -3.61256e-10, cumulative = -1.07729e-07
DICPCG:  Solving for p, Initial residual = 0.000269515, Final residual = 1.11096e-05, No Iterations 8
DICPCG:  Solving for p, Initial residual = 0.000111392, Final residual = 5.1187e-06, No Iterations 9
time step continuity errors : sum local = 7.70023e-09, global = 9.3645e-10, cumulative = -1.06793e-07
DICPCG:  Solving for p, Initial residual = 9.87456e-05, Final residual = 4.21892e-06, No Iterations 5
DICPCG:  Solving for p, Initial residual = 5.46079e-05, Final residual = 9.65018e-07, No Iterations 580
time step continuity errors : sum local = 1.45176e-09, global = 6.76463e-12, cumulative = -1.06786e-07
smoothSolver:  Solving for omega, Initial residual = 1.87572e-05, Final residual = 2.88861e-07, No Iterations 1
bounding omega, min: -2.06202 max: 2.93746e+06 average: 22780.5
smoothSolver:  Solving for k, Initial residual = 0.0056035, Final residual = 9.50541e-07, No Iterations 2
ExecutionTime = 166.19 s  ClockTime = 166 s

Courant Number mean: 0.168957 max: 10.0018
deltaT = 0.00106636
Time = 0.0242886

PIMPLE: iteration 1
smoothSolver:  Solving for Ux, Initial residual = 0.00885034, Final residual = 7.18625e-06, No Iterations 4
smoothSolver:  Solving for Uy, Initial residual = 0.00879587, Final residual = 7.14948e-06, No Iterations 4
smoothSolver:  Solving for Uz, Initial residual = 0.00438821, Final residual = 1.31288e-06, No Iterations 2
DICPCG:  Solving for p, Initial residual = 0.000781647, Final residual = 3.73569e-05, No Iterations 602
DICPCG:  Solving for p, Initial residual = 0.000492148, Final residual = 2.05406e-05, No Iterations 5
time step continuity errors : sum local = 3.03424e-08, global = -3.21708e-10, cumulative = -1.07108e-07
DICPCG:  Solving for p, Initial residual = 0.000271733, Final residual = 1.0605e-05, No Iterations 8
DICPCG:  Solving for p, Initial residual = 0.000114528, Final residual = 4.96107e-06, No Iterations 9
time step continuity errors : sum local = 7.32642e-09, global = 7.93306e-10, cumulative = -1.06314e-07
DICPCG:  Solving for p, Initial residual = 9.99249e-05, Final residual = 4.15368e-06, No Iterations 5
DICPCG:  Solving for p, Initial residual = 5.56848e-05, Final residual = 9.40227e-07, No Iterations 598
time step continuity errors : sum local = 1.38855e-09, global = 3.08113e-12, cumulative = -1.06311e-07
smoothSolver:  Solving for omega, Initial residual = 1.72596e-05, Final residual = 2.55363e-07, No Iterations 1
bounding omega, min: -45.8624 max: 2.93746e+06 average: 22783.5
smoothSolver:  Solving for k, Initial residual = 0.00535074, Final residual = 9.25431e-07, No Iterations 2
ExecutionTime = 172.71 s  ClockTime = 173 s

Courant Number mean: 0.168892 max: 9.97587
deltaT = 0.00106636
Time = 0.025355

PIMPLE: iteration 1
smoothSolver:  Solving for Ux, Initial residual = 0.00867645, Final residual = 6.98248e-06, No Iterations 4
smoothSolver:  Solving for Uy, Initial residual = 0.00863615, Final residual = 6.94586e-06, No Iterations 4
smoothSolver:  Solving for Uz, Initial residual = 0.00421105, Final residual = 1.24692e-06, No Iterations 2
DICPCG:  Solving for p, Initial residual = 0.00077656, Final residual = 3.80358e-05, No Iterations 10
DICPCG:  Solving for p, Initial residual = 0.000295477, Final residual = 1.31098e-05, No Iterations 600
time step continuity errors : sum local = 1.94113e-08, global = 4.59163e-11, cumulative = -1.06265e-07
DICPCG:  Solving for p, Initial residual = 0.000467235, Final residual = 2.27707e-05, No Iterations 3
DICPCG:  Solving for p, Initial residual = 0.000131218, Final residual = 6.34909e-06, No Iterations 11
time step continuity errors : sum local = 9.21422e-09, global = 9.38538e-10, cumulative = -1.05327e-07
DICPCG:  Solving for p, Initial residual = 0.000100895, Final residual = 4.79842e-06, No Iterations 5
DICPCG:  Solving for p, Initial residual = 5.38981e-05, Final residual = 9.97375e-07, No Iterations 583
time step continuity errors : sum local = 1.44746e-09, global = -1.49712e-11, cumulative = -1.05342e-07
smoothSolver:  Solving for omega, Initial residual = 1.61627e-05, Final residual = 2.36596e-07, No Iterations 1
bounding omega, min: -1.51008 max: 2.93746e+06 average: 22784.3
smoothSolver:  Solving for k, Initial residual = 0.00512716, Final residual = 9.24988e-07, No Iterations 2
ExecutionTime = 179.72 s  ClockTime = 180 s

Courant Number mean: 0.168829 max: 9.94874
deltaT = 0.00106636
Time = 0.0264213

PIMPLE: iteration 1
smoothSolver:  Solving for Ux, Initial residual = 0.00855372, Final residual = 6.77755e-06, No Iterations 4
smoothSolver:  Solving for Uy, Initial residual = 0.00851962, Final residual = 6.74252e-06, No Iterations 4
smoothSolver:  Solving for Uz, Initial residual = 0.0040513, Final residual = 1.18684e-06, No Iterations 2
DICPCG:  Solving for p, Initial residual = 0.0008052, Final residual = 3.96828e-05, No Iterations 10
DICPCG:  Solving for p, Initial residual = 0.000307515, Final residual = 1.44927e-05, No Iterations 601
time step continuity errors : sum local = 2.10838e-08, global = -1.79032e-10, cumulative = -1.05521e-07
DICPCG:  Solving for p, Initial residual = 0.000458709, Final residual = 2.22804e-05, No Iterations 3
DICPCG:  Solving for p, Initial residual = 0.000133224, Final residual = 5.49302e-06, No Iterations 11
time step continuity errors : sum local = 7.84003e-09, global = 8.47873e-10, cumulative = -1.04673e-07
DICPCG:  Solving for p, Initial residual = 0.00010206, Final residual = 4.66756e-06, No Iterations 5
DICPCG:  Solving for p, Initial residual = 5.37512e-05, Final residual = 9.98594e-07, No Iterations 582
time step continuity errors : sum local = 1.42526e-09, global = 2.46371e-11, cumulative = -1.04648e-07
smoothSolver:  Solving for omega, Initial residual = 1.51487e-05, Final residual = 2.14595e-07, No Iterations 1
bounding omega, min: -45.9458 max: 2.93746e+06 average: 22786.3
smoothSolver:  Solving for k, Initial residual = 0.00492846, Final residual = 9.00781e-07, No Iterations 2
ExecutionTime = 186.35 s  ClockTime = 186 s

Courant Number mean: 0.168767 max: 9.92041
deltaT = 0.00108204
Time = 0.0275034

PIMPLE: iteration 1
smoothSolver:  Solving for Ux, Initial residual = 0.00849071, Final residual = 6.91768e-06, No Iterations 4
smoothSolver:  Solving for Uy, Initial residual = 0.00848167, Final residual = 6.88404e-06, No Iterations 4
smoothSolver:  Solving for Uz, Initial residual = 0.00395774, Final residual = 1.19441e-06, No Iterations 2
DICPCG:  Solving for p, Initial residual = 0.000881216, Final residual = 3.94617e-05, No Iterations 10
DICPCG:  Solving for p, Initial residual = 0.000322739, Final residual = 1.52843e-05, No Iterations 601
time step continuity errors : sum local = 2.22439e-08, global = -1.36216e-10, cumulative = -1.04785e-07
DICPCG:  Solving for p, Initial residual = 0.000456855, Final residual = 2.27424e-05, No Iterations 3
DICPCG:  Solving for p, Initial residual = 0.000131625, Final residual = 5.86482e-06, No Iterations 11
time step continuity errors : sum local = 8.37934e-09, global = 7.40485e-10, cumulative = -1.04044e-07
DICPCG:  Solving for p, Initial residual = 0.000100567, Final residual = 4.58783e-06, No Iterations 5
DICPCG:  Solving for p, Initial residual = 5.06954e-05, Final residual = 9.41671e-07, No Iterations 605
time step continuity errors : sum local = 1.34542e-09, global = 1.461e-11, cumulative = -1.04029e-07
smoothSolver:  Solving for omega, Initial residual = 1.44786e-05, Final residual = 2.07508e-07, No Iterations 1
bounding omega, min: -2.13917 max: 2.93746e+06 average: 22787.2
smoothSolver:  Solving for k, Initial residual = 0.00481182, Final residual = 9.43188e-07, No Iterations 2
ExecutionTime = 192.66 s  ClockTime = 193 s

Courant Number mean: 0.171186 max: 10.049
deltaT = 0.00108204
Time = 0.0285854

PIMPLE: iteration 1
smoothSolver:  Solving for Ux, Initial residual = 0.00830228, Final residual = 6.76418e-06, No Iterations 4
smoothSolver:  Solving for Uy, Initial residual = 0.00830159, Final residual = 6.73154e-06, No Iterations 4
smoothSolver:  Solving for Uz, Initial residual = 0.00381546, Final residual = 1.14052e-06, No Iterations 2
DICPCG:  Solving for p, Initial residual = 0.000812658, Final residual = 3.86484e-05, No Iterations 10
DICPCG:  Solving for p, Initial residual = 0.000317041, Final residual = 1.45818e-05, No Iterations 598
time step continuity errors : sum local = 2.08812e-08, global = -8.27376e-11, cumulative = -1.04112e-07
DICPCG:  Solving for p, Initial residual = 0.000444462, Final residual = 2.14602e-05, No Iterations 3
DICPCG:  Solving for p, Initial residual = 0.000130904, Final residual = 6.00558e-06, No Iterations 11
time step continuity errors : sum local = 8.44815e-09, global = 7.34048e-10, cumulative = -1.03378e-07
DICPCG:  Solving for p, Initial residual = 0.000100594, Final residual = 4.56079e-06, No Iterations 5
DICPCG:  Solving for p, Initial residual = 5.12405e-05, Final residual = 9.91162e-07, No Iterations 603
time step continuity errors : sum local = 1.39429e-09, global = -9.06659e-12, cumulative = -1.03387e-07
smoothSolver:  Solving for omega, Initial residual = 1.36575e-05, Final residual = 1.88908e-07, No Iterations 1
bounding omega, min: -46.8665 max: 2.93746e+06 average: 22788.8
smoothSolver:  Solving for k, Initial residual = 0.00465054, Final residual = 9.31596e-07, No Iterations 2
ExecutionTime = 199.31 s  ClockTime = 199 s

Courant Number mean: 0.171125 max: 10.0513
deltaT = 0.00108204
Time = 0.0296675

PIMPLE: iteration 1
smoothSolver:  Solving for Ux, Initial residual = 0.00810664, Final residual = 6.56348e-06, No Iterations 4
smoothSolver:  Solving for Uy, Initial residual = 0.00810167, Final residual = 6.53442e-06, No Iterations 4
smoothSolver:  Solving for Uz, Initial residual = 0.00368221, Final residual = 1.09015e-06, No Iterations 2
DICPCG:  Solving for p, Initial residual = 0.000805908, Final residual = 3.60529e-05, No Iterations 10
DICPCG:  Solving for p, Initial residual = 0.000297676, Final residual = 1.22094e-05, No Iterations 601
time step continuity errors : sum local = 1.72126e-08, global = -2.63678e-11, cumulative = -1.03414e-07
DICPCG:  Solving for p, Initial residual = 0.000421884, Final residual = 1.96593e-05, No Iterations 3
DICPCG:  Solving for p, Initial residual = 0.000120926, Final residual = 5.53797e-06, No Iterations 11
time step continuity errors : sum local = 7.67561e-09, global = 7.15504e-10, cumulative = -1.02698e-07
DICPCG:  Solving for p, Initial residual = 9.64481e-05, Final residual = 4.42359e-06, No Iterations 5
DICPCG:  Solving for p, Initial residual = 5.08633e-05, Final residual = 9.23185e-07, No Iterations 577
time step continuity errors : sum local = 1.27954e-09, global = 2.24918e-11, cumulative = -1.02676e-07
smoothSolver:  Solving for omega, Initial residual = 1.29948e-05, Final residual = 1.77676e-07, No Iterations 1
bounding omega, min: -2.75761 max: 2.93746e+06 average: 22789.8
smoothSolver:  Solving for k, Initial residual = 0.00450376, Final residual = 9.25915e-07, No Iterations 2
ExecutionTime = 205.52 s  ClockTime = 205 s

Courant Number mean: 0.171064 max: 10.0534
deltaT = 0.00108204
Time = 0.0307495

PIMPLE: iteration 1
smoothSolver:  Solving for Ux, Initial residual = 0.00778806, Final residual = 6.36019e-06, No Iterations 4
smoothSolver:  Solving for Uy, Initial residual = 0.00779856, Final residual = 6.33024e-06, No Iterations 4
smoothSolver:  Solving for Uz, Initial residual = 0.00355741, Final residual = 1.04364e-06, No Iterations 2
DICPCG:  Solving for p, Initial residual = 0.000721248, Final residual = 3.23896e-05, No Iterations 10
DICPCG:  Solving for p, Initial residual = 0.000255427, Final residual = 1.13178e-05, No Iterations 601
time step continuity errors : sum local = 1.5719e-08, global = -1.90759e-10, cumulative = -1.02866e-07
DICPCG:  Solving for p, Initial residual = 0.000392353, Final residual = 1.7183e-05, No Iterations 3
DICPCG:  Solving for p, Initial residual = 0.000104572, Final residual = 5.17133e-06, No Iterations 10
time step continuity errors : sum local = 7.06532e-09, global = 6.94154e-10, cumulative = -1.02172e-07
DICPCG:  Solving for p, Initial residual = 8.7636e-05, Final residual = 4.32812e-06, No Iterations 6
DICPCG:  Solving for p, Initial residual = 4.86968e-05, Final residual = 9.98516e-07, No Iterations 605
time step continuity errors : sum local = 1.36423e-09, global = 6.49853e-12, cumulative = -1.02166e-07
smoothSolver:  Solving for omega, Initial residual = 1.23695e-05, Final residual = 1.65546e-07, No Iterations 1
bounding omega, min: -47.0181 max: 2.93746e+06 average: 22791
smoothSolver:  Solving for k, Initial residual = 0.00437032, Final residual = 9.13883e-07, No Iterations 2
ExecutionTime = 211.62 s  ClockTime = 211 s

Courant Number mean: 0.171005 max: 10.0554
deltaT = 0.00108204
Time = 0.0318315

PIMPLE: iteration 1
smoothSolver:  Solving for Ux, Initial residual = 0.00741973, Final residual = 6.15725e-06, No Iterations 4
smoothSolver:  Solving for Uy, Initial residual = 0.00741356, Final residual = 6.12767e-06, No Iterations 4
smoothSolver:  Solving for Uz, Initial residual = 0.00344007, Final residual = 1.00039e-06, No Iterations 2
DICPCG:  Solving for p, Initial residual = 0.000627757, Final residual = 2.78468e-05, No Iterations 10
DICPCG:  Solving for p, Initial residual = 0.000206035, Final residual = 8.4347e-06, No Iterations 600
time step continuity errors : sum local = 1.15472e-08, global = 1.22063e-11, cumulative = -1.02153e-07
DICPCG:  Solving for p, Initial residual = 0.000367356, Final residual = 1.4845e-05, No Iterations 3
DICPCG:  Solving for p, Initial residual = 8.69532e-05, Final residual = 3.50631e-06, No Iterations 11
time step continuity errors : sum local = 4.7246e-09, global = 6.39232e-10, cumulative = -1.01514e-07
DICPCG:  Solving for p, Initial residual = 7.34825e-05, Final residual = 3.6258e-06, No Iterations 4
DICPCG:  Solving for p, Initial residual = 4.06068e-05, Final residual = 9.38012e-07, No Iterations 580
time step continuity errors : sum local = 1.26392e-09, global = 7.50651e-12, cumulative = -1.01507e-07
smoothSolver:  Solving for omega, Initial residual = 1.18529e-05, Final residual = 1.57384e-07, No Iterations 1
bounding omega, min: -3.16168 max: 2.93746e+06 average: 22791.9
smoothSolver:  Solving for k, Initial residual = 0.0042484, Final residual = 9.01817e-07, No Iterations 2
ExecutionTime = 217.69 s  ClockTime = 218 s

Courant Number mean: 0.170947 max: 10.0572
deltaT = 0.00108204
Time = 0.0329136

PIMPLE: iteration 1
smoothSolver:  Solving for Ux, Initial residual = 0.007085, Final residual = 5.94998e-06, No Iterations 4
smoothSolver:  Solving for Uy, Initial residual = 0.00708933, Final residual = 5.92224e-06, No Iterations 4
smoothSolver:  Solving for Uz, Initial residual = 0.00332944, Final residual = 9.6019e-07, No Iterations 2
DICPCG:  Solving for p, Initial residual = 0.000566646, Final residual = 2.47183e-05, No Iterations 10
DICPCG:  Solving for p, Initial residual = 0.000171553, Final residual = 7.26265e-06, No Iterations 603
time step continuity errors : sum local = 9.80557e-09, global = 2.18241e-12, cumulative = -1.01505e-07
DICPCG:  Solving for p, Initial residual = 0.000345243, Final residual = 1.33131e-05, No Iterations 3
DICPCG:  Solving for p, Initial residual = 7.38791e-05, Final residual = 3.47112e-06, No Iterations 10
time step continuity errors : sum local = 4.61528e-09, global = 6.47561e-10, cumulative = -1.00857e-07
DICPCG:  Solving for p, Initial residual = 6.03881e-05, Final residual = 2.99275e-06, No Iterations 4
DICPCG:  Solving for p, Initial residual = 3.13933e-05, Final residual = 9.78423e-07, No Iterations 607
time step continuity errors : sum local = 1.30091e-09, global = 8.99941e-12, cumulative = -1.00848e-07
smoothSolver:  Solving for omega, Initial residual = 1.13522e-05, Final residual = 1.4767e-07, No Iterations 1
bounding omega, min: -47.1421 max: 2.93746e+06 average: 22793
smoothSolver:  Solving for k, Initial residual = 0.00413696, Final residual = 8.93035e-07, No Iterations 2
ExecutionTime = 224.21 s  ClockTime = 224 s

Courant Number mean: 0.17089 max: 10.059
deltaT = 0.00108204
Time = 0.0339956

PIMPLE: iteration 1
smoothSolver:  Solving for Ux, Initial residual = 0.0068359, Final residual = 5.74472e-06, No Iterations 4
smoothSolver:  Solving for Uy, Initial residual = 0.00685952, Final residual = 5.71743e-06, No Iterations 4
smoothSolver:  Solving for Uz, Initial residual = 0.00322493, Final residual = 9.22854e-07, No Iterations 2
DICPCG:  Solving for p, Initial residual = 0.000521321, Final residual = 2.60417e-05, No Iterations 9
DICPCG:  Solving for p, Initial residual = 0.000155922, Final residual = 7.29591e-06, No Iterations 604
time step continuity errors : sum local = 9.7198e-09, global = -1.98708e-10, cumulative = -1.01047e-07
DICPCG:  Solving for p, Initial residual = 0.000331009, Final residual = 1.25418e-05, No Iterations 3
DICPCG:  Solving for p, Initial residual = 6.99942e-05, Final residual = 3.17294e-06, No Iterations 8
time step continuity errors : sum local = 4.16507e-09, global = 7.81485e-10, cumulative = -1.00265e-07
DICPCG:  Solving for p, Initial residual = 5.51759e-05, Final residual = 2.74556e-06, No Iterations 6
DICPCG:  Solving for p, Initial residual = 2.81308e-05, Final residual = 9.7445e-07, No Iterations 582
time step continuity errors : sum local = 1.27913e-09, global = 1.6562e-11, cumulative = -1.00249e-07
smoothSolver:  Solving for omega, Initial residual = 1.09188e-05, Final residual = 1.39686e-07, No Iterations 1
bounding omega, min: -3.55831 max: 2.93746e+06 average: 22793.8
smoothSolver:  Solving for k, Initial residual = 0.00403449, Final residual = 8.71439e-07, No Iterations 2
ExecutionTime = 230.44 s  ClockTime = 230 s

Courant Number mean: 0.170834 max: 10.0606
deltaT = 0.00108204
Time = 0.0350776

PIMPLE: iteration 1
smoothSolver:  Solving for Ux, Initial residual = 0.00665679, Final residual = 5.53816e-06, No Iterations 4
smoothSolver:  Solving for Uy, Initial residual = 0.00669389, Final residual = 5.5108e-06, No Iterations 4
smoothSolver:  Solving for Uz, Initial residual = 0.00312844, Final residual = 8.88273e-07, No Iterations 2
DICPCG:  Solving for p, Initial residual = 0.000503243, Final residual = 2.18832e-05, No Iterations 10
DICPCG:  Solving for p, Initial residual = 0.000148141, Final residual = 6.5449e-06, No Iterations 604
time step continuity errors : sum local = 8.60775e-09, global = -9.37952e-11, cumulative = -1.00342e-07
DICPCG:  Solving for p, Initial residual = 0.000318462, Final residual = 1.22474e-05, No Iterations 3
DICPCG:  Solving for p, Initial residual = 6.676e-05, Final residual = 2.83194e-06, No Iterations 10
time step continuity errors : sum local = 3.67178e-09, global = 5.95858e-10, cumulative = -9.97466e-08
DICPCG:  Solving for p, Initial residual = 5.25446e-05, Final residual = 2.47678e-06, No Iterations 4
DICPCG:  Solving for p, Initial residual = 2.54845e-05, Final residual = 9.63812e-07, No Iterations 607
time step continuity errors : sum local = 1.24962e-09, global = 8.57935e-12, cumulative = -9.9738e-08
smoothSolver:  Solving for omega, Initial residual = 1.04898e-05, Final residual = 1.3183e-07, No Iterations 1
bounding omega, min: -47.2102 max: 2.93746e+06 average: 22794.7
smoothSolver:  Solving for k, Initial residual = 0.00394032, Final residual = 8.63694e-07, No Iterations 2
ExecutionTime = 236.98 s  ClockTime = 237 s

Courant Number mean: 0.170778 max: 10.0622
deltaT = 0.00108204
Time = 0.0361597

PIMPLE: iteration 1
smoothSolver:  Solving for Ux, Initial residual = 0.00649049, Final residual = 5.3385e-06, No Iterations 4
smoothSolver:  Solving for Uy, Initial residual = 0.00653187, Final residual = 5.31194e-06, No Iterations 4
smoothSolver:  Solving for Uz, Initial residual = 0.00303816, Final residual = 8.55986e-07, No Iterations 2
DICPCG:  Solving for p, Initial residual = 0.000485396, Final residual = 2.41665e-05, No Iterations 9
DICPCG:  Solving for p, Initial residual = 0.000142082, Final residual = 6.84595e-06, No Iterations 604
time step continuity errors : sum local = 8.89267e-09, global = -1.58996e-10, cumulative = -9.9897e-08
DICPCG:  Solving for p, Initial residual = 0.000309826, Final residual = 1.20097e-05, No Iterations 3
DICPCG:  Solving for p, Initial residual = 6.59129e-05, Final residual = 3.02288e-06, No Iterations 8
time step continuity errors : sum local = 3.87279e-09, global = 7.3902e-10, cumulative = -9.9158e-08
DICPCG:  Solving for p, Initial residual = 5.18192e-05, Final residual = 2.4955e-06, No Iterations 7
DICPCG:  Solving for p, Initial residual = 2.57754e-05, Final residual = 9.53261e-07, No Iterations 579
time step continuity errors : sum local = 1.22126e-09, global = 1.16372e-11, cumulative = -9.91464e-08
smoothSolver:  Solving for omega, Initial residual = 1.01233e-05, Final residual = 1.26371e-07, No Iterations 1
bounding omega, min: -3.97493 max: 2.93746e+06 average: 22795.4
smoothSolver:  Solving for k, Initial residual = 0.00385314, Final residual = 8.37168e-07, No Iterations 2
ExecutionTime = 243.67 s  ClockTime = 244 s

Courant Number mean: 0.170724 max: 10.0636
deltaT = 0.00108204
Time = 0.0372417

PIMPLE: iteration 1
smoothSolver:  Solving for Ux, Initial residual = 0.00632824, Final residual = 5.14864e-06, No Iterations 4
smoothSolver:  Solving for Uy, Initial residual = 0.00638464, Final residual = 5.12365e-06, No Iterations 4
smoothSolver:  Solving for Uz, Initial residual = 0.00295203, Final residual = 8.2566e-07, No Iterations 2
DICPCG:  Solving for p, Initial residual = 0.000459317, Final residual = 2.21558e-05, No Iterations 10
DICPCG:  Solving for p, Initial residual = 0.000134849, Final residual = 5.94686e-06, No Iterations 605
time step continuity errors : sum local = 7.63287e-09, global = -1.32214e-10, cumulative = -9.92786e-08
DICPCG:  Solving for p, Initial residual = 0.00029849, Final residual = 1.15759e-05, No Iterations 3
DICPCG:  Solving for p, Initial residual = 6.19421e-05, Final residual = 2.77395e-06, No Iterations 9
time step continuity errors : sum local = 3.51317e-09, global = 6.36826e-10, cumulative = -9.86418e-08
DICPCG:  Solving for p, Initial residual = 4.88623e-05, Final residual = 2.37796e-06, No Iterations 7
DICPCG:  Solving for p, Initial residual = 2.37695e-05, Final residual = 9.78648e-07, No Iterations 579
time step continuity errors : sum local = 1.23943e-09, global = 1.59788e-11, cumulative = -9.86258e-08
smoothSolver:  Solving for omega, Initial residual = 9.76608e-06, Final residual = 9.76608e-06, No Iterations 0
smoothSolver:  Solving for k, Initial residual = 0.00373501, Final residual = 8.17702e-07, No Iterations 2
ExecutionTime = 251.05 s  ClockTime = 251 s

Courant Number mean: 0.170671 max: 10.065
deltaT = 0.00108204
Time = 0.0383238

PIMPLE: iteration 1
smoothSolver:  Solving for Ux, Initial residual = 0.00618637, Final residual = 4.97162e-06, No Iterations 4
smoothSolver:  Solving for Uy, Initial residual = 0.0062367, Final residual = 4.94724e-06, No Iterations 4
smoothSolver:  Solving for Uz, Initial residual = 0.00286859, Final residual = 7.96874e-07, No Iterations 2
DICPCG:  Solving for p, Initial residual = 0.000438351, Final residual = 2.10366e-05, No Iterations 10
DICPCG:  Solving for p, Initial residual = 0.000131909, Final residual = 5.42263e-06, No Iterations 605
time step continuity errors : sum local = 6.88053e-09, global = -1.06452e-10, cumulative = -9.87322e-08
DICPCG:  Solving for p, Initial residual = 0.000289393, Final residual = 1.12317e-05, No Iterations 3
DICPCG:  Solving for p, Initial residual = 5.98324e-05, Final residual = 2.7478e-06, No Iterations 9
time step continuity errors : sum local = 3.44171e-09, global = 6.06201e-10, cumulative = -9.8126e-08
DICPCG:  Solving for p, Initial residual = 4.70407e-05, Final residual = 2.30094e-06, No Iterations 6
DICPCG:  Solving for p, Initial residual = 2.27178e-05, Final residual = 9.87647e-07, No Iterations 578
time step continuity errors : sum local = 1.23705e-09, global = 1.48584e-11, cumulative = -9.81112e-08
smoothSolver:  Solving for omega, Initial residual = 1.07023e-05, Final residual = 1.34268e-07, No Iterations 1
bounding omega, min: -47.273 max: 2.93746e+06 average: 22796
smoothSolver:  Solving for k, Initial residual = 0.00365153, Final residual = 7.90712e-07, No Iterations 2
ExecutionTime = 258.65 s  ClockTime = 259 s

Courant Number mean: 0.170618 max: 10.0663
deltaT = 0.00108204
Time = 0.0394058

PIMPLE: iteration 1
smoothSolver:  Solving for Ux, Initial residual = 0.0060468, Final residual = 4.80938e-06, No Iterations 4
smoothSolver:  Solving for Uy, Initial residual = 0.00610646, Final residual = 4.78366e-06, No Iterations 4
smoothSolver:  Solving for Uz, Initial residual = 0.00279115, Final residual = 7.70009e-07, No Iterations 2
DICPCG:  Solving for p, Initial residual = 0.000453558, Final residual = 2.15703e-05, No Iterations 10
DICPCG:  Solving for p, Initial residual = 0.000136368, Final residual = 5.7723e-06, No Iterations 605
time step continuity errors : sum local = 7.24388e-09, global = -1.34776e-10, cumulative = -9.82459e-08
DICPCG:  Solving for p, Initial residual = 0.000281281, Final residual = 1.11121e-05, No Iterations 3
DICPCG:  Solving for p, Initial residual = 5.90827e-05, Final residual = 2.84124e-06, No Iterations 9
time step continuity errors : sum local = 3.52112e-09, global = 5.79054e-10, cumulative = -9.76669e-08
DICPCG:  Solving for p, Initial residual = 4.78184e-05, Final residual = 2.01659e-06, No Iterations 8
DICPCG:  Solving for p, Initial residual = 2.35323e-05, Final residual = 9.47166e-07, No Iterations 577
time step continuity errors : sum local = 1.1738e-09, global = 1.40513e-11, cumulative = -9.76528e-08
smoothSolver:  Solving for omega, Initial residual = 9.59487e-06, Final residual = 9.59487e-06, No Iterations 0
smoothSolver:  Solving for k, Initial residual = 0.00354772, Final residual = 7.74555e-07, No Iterations 2
ExecutionTime = 266.14 s  ClockTime = 266 s

Courant Number mean: 0.170566 max: 10.0675
deltaT = 0.00108204
Time = 0.0404878

PIMPLE: iteration 1
smoothSolver:  Solving for Ux, Initial residual = 0.0059652, Final residual = 4.66565e-06, No Iterations 4
smoothSolver:  Solving for Uy, Initial residual = 0.00600943, Final residual = 4.64096e-06, No Iterations 4
smoothSolver:  Solving for Uz, Initial residual = 0.0027176, Final residual = 7.44908e-07, No Iterations 2
DICPCG:  Solving for p, Initial residual = 0.000463668, Final residual = 2.15829e-05, No Iterations 10
DICPCG:  Solving for p, Initial residual = 0.000138716, Final residual = 6.85735e-06, No Iterations 604
time step continuity errors : sum local = 8.51432e-09, global = -1.39214e-10, cumulative = -9.77921e-08
DICPCG:  Solving for p, Initial residual = 0.000274631, Final residual = 1.11991e-05, No Iterations 3
DICPCG:  Solving for p, Initial residual = 5.69524e-05, Final residual = 2.78611e-06, No Iterations 9
time step continuity errors : sum local = 3.41754e-09, global = 5.41483e-10, cumulative = -9.72506e-08
DICPCG:  Solving for p, Initial residual = 4.63221e-05, Final residual = 2.26801e-06, No Iterations 7
DICPCG:  Solving for p, Initial residual = 2.30094e-05, Final residual = 9.73682e-07, No Iterations 576
time step continuity errors : sum local = 1.19434e-09, global = 1.47281e-11, cumulative = -9.72358e-08
smoothSolver:  Solving for omega, Initial residual = 1.04287e-05, Final residual = 1.26931e-07, No Iterations 1
bounding omega, min: -4.36894 max: 2.93746e+06 average: 22796.6
smoothSolver:  Solving for k, Initial residual = 0.00347533, Final residual = 7.49996e-07, No Iterations 2
ExecutionTime = 273.68 s  ClockTime = 274 s

Courant Number mean: 0.170514 max: 10.0686
deltaT = 0.00108204
Time = 0.0415699

PIMPLE: iteration 1
smoothSolver:  Solving for Ux, Initial residual = 0.00580837, Final residual = 4.54252e-06, No Iterations 4
smoothSolver:  Solving for Uy, Initial residual = 0.0058698, Final residual = 4.51888e-06, No Iterations 4
smoothSolver:  Solving for Uz, Initial residual = 0.00265206, Final residual = 7.21969e-07, No Iterations 2
DICPCG:  Solving for p, Initial residual = 0.000457493, Final residual = 2.24172e-05, No Iterations 10
DICPCG:  Solving for p, Initial residual = 0.000127623, Final residual = 5.74668e-06, No Iterations 605
time step continuity errors : sum local = 7.06149e-09, global = -1.27747e-10, cumulative = -9.73636e-08
DICPCG:  Solving for p, Initial residual = 0.000263159, Final residual = 1.06483e-05, No Iterations 3
DICPCG:  Solving for p, Initial residual = 5.32911e-05, Final residual = 2.56027e-06, No Iterations 8
time step continuity errors : sum local = 3.10895e-09, global = 6.16641e-10, cumulative = -9.67469e-08
DICPCG:  Solving for p, Initial residual = 4.10186e-05, Final residual = 1.81517e-06, No Iterations 8
DICPCG:  Solving for p, Initial residual = 1.921e-05, Final residual = 9.25674e-07, No Iterations 576
time step continuity errors : sum local = 1.12404e-09, global = 8.31604e-12, cumulative = -9.67386e-08
smoothSolver:  Solving for omega, Initial residual = 9.43789e-06, Final residual = 9.43789e-06, No Iterations 0
smoothSolver:  Solving for k, Initial residual = 0.00338341, Final residual = 7.36959e-07, No Iterations 2
ExecutionTime = 280.73 s  ClockTime = 281 s

Courant Number mean: 0.170464 max: 10.0697
deltaT = 0.00108204
Time = 0.0426519

PIMPLE: iteration 1
smoothSolver:  Solving for Ux, Initial residual = 0.00568339, Final residual = 4.4426e-06, No Iterations 4
smoothSolver:  Solving for Uy, Initial residual = 0.0057335, Final residual = 4.42034e-06, No Iterations 4
smoothSolver:  Solving for Uz, Initial residual = 0.00259004, Final residual = 7.00289e-07, No Iterations 2
DICPCG:  Solving for p, Initial residual = 0.000471585, Final residual = 2.30319e-05, No Iterations 10
DICPCG:  Solving for p, Initial residual = 0.000123936, Final residual = 5.32867e-06, No Iterations 605
time step continuity errors : sum local = 6.48082e-09, global = -1.15146e-10, cumulative = -9.68538e-08
DICPCG:  Solving for p, Initial residual = 0.000255846, Final residual = 1.04259e-05, No Iterations 3
DICPCG:  Solving for p, Initial residual = 5.23617e-05, Final residual = 2.4949e-06, No Iterations 9
time step continuity errors : sum local = 2.9995e-09, global = 5.22956e-10, cumulative = -9.63308e-08
DICPCG:  Solving for p, Initial residual = 4.0471e-05, Final residual = 1.86962e-06, No Iterations 8
DICPCG:  Solving for p, Initial residual = 1.93147e-05, Final residual = 9.70948e-07, No Iterations 574
time step continuity errors : sum local = 1.16731e-09, global = 4.1907e-12, cumulative = -9.63266e-08
smoothSolver:  Solving for omega, Initial residual = 1.02147e-05, Final residual = 1.25036e-07, No Iterations 1
bounding omega, min: -47.3786 max: 2.93746e+06 average: 22797.2
smoothSolver:  Solving for k, Initial residual = 0.00331992, Final residual = 7.15051e-07, No Iterations 2
ExecutionTime = 288.06 s  ClockTime = 288 s

Courant Number mean: 0.170414 max: 10.0707
deltaT = 0.00108204
Time = 0.043734

PIMPLE: iteration 1
smoothSolver:  Solving for Ux, Initial residual = 0.00557477, Final residual = 4.3593e-06, No Iterations 4
smoothSolver:  Solving for Uy, Initial residual = 0.0056214, Final residual = 4.3357e-06, No Iterations 4
smoothSolver:  Solving for Uz, Initial residual = 0.00253152, Final residual = 6.79975e-07, No Iterations 2
DICPCG:  Solving for p, Initial residual = 0.000426771, Final residual = 2.05023e-05, No Iterations 10
DICPCG:  Solving for p, Initial residual = 0.000114175, Final residual = 5.54897e-06, No Iterations 605
time step continuity errors : sum local = 6.68191e-09, global = -1.20631e-10, cumulative = -9.64473e-08
DICPCG:  Solving for p, Initial residual = 0.000248176, Final residual = 1.05822e-05, No Iterations 3
DICPCG:  Solving for p, Initial residual = 5.09514e-05, Final residual = 2.29365e-06, No Iterations 9
time step continuity errors : sum local = 2.73106e-09, global = 5.06534e-10, cumulative = -9.59407e-08
DICPCG:  Solving for p, Initial residual = 3.95437e-05, Final residual = 1.83424e-06, No Iterations 8
DICPCG:  Solving for p, Initial residual = 1.91196e-05, Final residual = 9.95012e-07, No Iterations 573
time step continuity errors : sum local = 1.18475e-09, global = 1.70471e-12, cumulative = -9.5939e-08
smoothSolver:  Solving for omega, Initial residual = 9.24704e-06, Final residual = 9.24704e-06, No Iterations 0
smoothSolver:  Solving for k, Initial residual = 0.00323779, Final residual = 7.02137e-07, No Iterations 2
ExecutionTime = 295.41 s  ClockTime = 295 s

Courant Number mean: 0.170364 max: 10.0717
deltaT = 0.00108204
Time = 0.044816

PIMPLE: iteration 1
smoothSolver:  Solving for Ux, Initial residual = 0.00545874, Final residual = 4.29666e-06, No Iterations 4
smoothSolver:  Solving for Uy, Initial residual = 0.00552569, Final residual = 4.27352e-06, No Iterations 4
smoothSolver:  Solving for Uz, Initial residual = 0.00247469, Final residual = 6.60428e-07, No Iterations 2
DICPCG:  Solving for p, Initial residual = 0.000397627, Final residual = 1.97853e-05, No Iterations 10
DICPCG:  Solving for p, Initial residual = 0.000108428, Final residual = 5.30097e-06, No Iterations 605
time step continuity errors : sum local = 6.32179e-09, global = -1.17871e-10, cumulative = -9.60569e-08
DICPCG:  Solving for p, Initial residual = 0.000239323, Final residual = 1.00064e-05, No Iterations 3
DICPCG:  Solving for p, Initial residual = 4.86056e-05, Final residual = 2.22764e-06, No Iterations 9
time step continuity errors : sum local = 2.62772e-09, global = 4.83563e-10, cumulative = -9.55733e-08
DICPCG:  Solving for p, Initial residual = 3.68846e-05, Final residual = 1.72432e-06, No Iterations 8
DICPCG:  Solving for p, Initial residual = 1.70919e-05, Final residual = 9.79571e-07, No Iterations 573
time step continuity errors : sum local = 1.15549e-09, global = 6.94785e-12, cumulative = -9.55664e-08
smoothSolver:  Solving for omega, Initial residual = 9.9704e-06, Final residual = 9.9704e-06, No Iterations 0
smoothSolver:  Solving for k, Initial residual = 0.00314749, Final residual = 6.76567e-07, No Iterations 2
ExecutionTime = 302.08 s  ClockTime = 302 s

Courant Number mean: 0.170316 max: 10.0726
deltaT = 0.00108204
Time = 0.045898

PIMPLE: iteration 1
smoothSolver:  Solving for Ux, Initial residual = 0.00536591, Final residual = 4.25224e-06, No Iterations 4
smoothSolver:  Solving for Uy, Initial residual = 0.00542859, Final residual = 4.22919e-06, No Iterations 4
smoothSolver:  Solving for Uz, Initial residual = 0.00242023, Final residual = 6.41994e-07, No Iterations 2
DICPCG:  Solving for p, Initial residual = 0.00038849, Final residual = 1.77395e-05, No Iterations 606
DICPCG:  Solving for p, Initial residual = 0.000233109, Final residual = 1.07854e-05, No Iterations 4
time step continuity errors : sum local = 1.26086e-08, global = -3.99249e-11, cumulative = -9.56063e-08
DICPCG:  Solving for p, Initial residual = 0.000121884, Final residual = 6.01975e-06, No Iterations 7
DICPCG:  Solving for p, Initial residual = 3.6166e-05, Final residual = 1.79503e-06, No Iterations 9
time step continuity errors : sum local = 2.09817e-09, global = 3.31772e-10, cumulative = -9.52745e-08
DICPCG:  Solving for p, Initial residual = 3.54814e-05, Final residual = 1.53035e-06, No Iterations 4
DICPCG:  Solving for p, Initial residual = 1.66186e-05, Final residual = 9.8831e-07, No Iterations 568
time step continuity errors : sum local = 1.15522e-09, global = 2.94989e-11, cumulative = -9.5245e-08
smoothSolver:  Solving for omega, Initial residual = 1.06724e-05, Final residual = 1.29853e-07, No Iterations 1
bounding omega, min: -4.7283 max: 2.93746e+06 average: 22797.6
smoothSolver:  Solving for k, Initial residual = 0.00309529, Final residual = 6.71095e-07, No Iterations 2
ExecutionTime = 309.09 s  ClockTime = 309 s

Courant Number mean: 0.170267 max: 10.0734
deltaT = 0.00108204
Time = 0.0469801

PIMPLE: iteration 1
smoothSolver:  Solving for Ux, Initial residual = 0.00527975, Final residual = 4.22456e-06, No Iterations 4
smoothSolver:  Solving for Uy, Initial residual = 0.00534219, Final residual = 4.20306e-06, No Iterations 4
smoothSolver:  Solving for Uz, Initial residual = 0.00236876, Final residual = 6.24947e-07, No Iterations 2
DICPCG:  Solving for p, Initial residual = 0.000403793, Final residual = 1.97861e-05, No Iterations 605
DICPCG:  Solving for p, Initial residual = 0.000231446, Final residual = 1.14726e-05, No Iterations 4
time step continuity errors : sum local = 1.32929e-08, global = -1.23073e-10, cumulative = -9.53681e-08
DICPCG:  Solving for p, Initial residual = 0.000121737, Final residual = 4.99116e-06, No Iterations 8
DICPCG:  Solving for p, Initial residual = 3.77558e-05, Final residual = 1.73484e-06, No Iterations 8
time step continuity errors : sum local = 2.00982e-09, global = 2.48549e-10, cumulative = -9.51196e-08
DICPCG:  Solving for p, Initial residual = 3.63971e-05, Final residual = 1.72642e-06, No Iterations 4
DICPCG:  Solving for p, Initial residual = 1.79088e-05, Final residual = 9.96356e-07, No Iterations 589
time step continuity errors : sum local = 1.15429e-09, global = 1.47593e-11, cumulative = -9.51048e-08
smoothSolver:  Solving for omega, Initial residual = 9.21496e-06, Final residual = 9.21496e-06, No Iterations 0
smoothSolver:  Solving for k, Initial residual = 0.00302558, Final residual = 6.4947e-07, No Iterations 2
ExecutionTime = 315.17 s  ClockTime = 315 s

Courant Number mean: 0.17022 max: 10.0742
deltaT = 0.00108204
Time = 0.0480621

PIMPLE: iteration 1
smoothSolver:  Solving for Ux, Initial residual = 0.00522357, Final residual = 4.21596e-06, No Iterations 4
smoothSolver:  Solving for Uy, Initial residual = 0.0052759, Final residual = 4.19432e-06, No Iterations 4
smoothSolver:  Solving for Uz, Initial residual = 0.00231852, Final residual = 6.0874e-07, No Iterations 2
DICPCG:  Solving for p, Initial residual = 0.000384843, Final residual = 1.7104e-05, No Iterations 606
DICPCG:  Solving for p, Initial residual = 0.000231104, Final residual = 1.1121e-05, No Iterations 4
time step continuity errors : sum local = 1.27742e-08, global = -5.46488e-11, cumulative = -9.51594e-08
DICPCG:  Solving for p, Initial residual = 0.000122835, Final residual = 4.67812e-06, No Iterations 8
DICPCG:  Solving for p, Initial residual = 4.03421e-05, Final residual = 1.9021e-06, No Iterations 8
time step continuity errors : sum local = 2.18457e-09, global = 3.05499e-10, cumulative = -9.48539e-08
DICPCG:  Solving for p, Initial residual = 3.82894e-05, Final residual = 1.90254e-06, No Iterations 4
DICPCG:  Solving for p, Initial residual = 1.97118e-05, Final residual = 9.50513e-07, No Iterations 584
time step continuity errors : sum local = 1.09167e-09, global = 6.75428e-12, cumulative = -9.48472e-08
smoothSolver:  Solving for omega, Initial residual = 9.84062e-06, Final residual = 9.84062e-06, No Iterations 0
smoothSolver:  Solving for k, Initial residual = 0.00294562, Final residual = 6.38463e-07, No Iterations 2
ExecutionTime = 321.81 s  ClockTime = 322 s

Courant Number mean: 0.170173 max: 10.075
deltaT = 0.00108204
Time = 0.0491442

PIMPLE: iteration 1
smoothSolver:  Solving for Ux, Initial residual = 0.00516517, Final residual = 4.22368e-06, No Iterations 4
smoothSolver:  Solving for Uy, Initial residual = 0.00522467, Final residual = 4.20197e-06, No Iterations 4
smoothSolver:  Solving for Uz, Initial residual = 0.00227017, Final residual = 5.93503e-07, No Iterations 2
DICPCG:  Solving for p, Initial residual = 0.000394278, Final residual = 1.7706e-05, No Iterations 606
DICPCG:  Solving for p, Initial residual = 0.000235452, Final residual = 8.60795e-06, No Iterations 5
time step continuity errors : sum local = 9.80402e-09, global = -9.07321e-11, cumulative = -9.49379e-08
DICPCG:  Solving for p, Initial residual = 0.000127719, Final residual = 4.89764e-06, No Iterations 8
DICPCG:  Solving for p, Initial residual = 4.54673e-05, Final residual = 2.06677e-06, No Iterations 9
time step continuity errors : sum local = 2.35367e-09, global = 2.75723e-10, cumulative = -9.46622e-08
DICPCG:  Solving for p, Initial residual = 4.23905e-05, Final residual = 2.07367e-06, No Iterations 4
DICPCG:  Solving for p, Initial residual = 2.25875e-05, Final residual = 9.54346e-07, No Iterations 575
time step continuity errors : sum local = 1.08684e-09, global = 2.48173e-11, cumulative = -9.46374e-08
smoothSolver:  Solving for omega, Initial residual = 1.04889e-05, Final residual = 1.2599e-07, No Iterations 1
bounding omega, min: -47.6443 max: 2.93746e+06 average: 22798.2
smoothSolver:  Solving for k, Initial residual = 0.00290166, Final residual = 6.25682e-07, No Iterations 2
ExecutionTime = 328.66 s  ClockTime = 329 s

Courant Number mean: 0.170126 max: 10.0757
deltaT = 0.00108204
Time = 0.0502262

PIMPLE: iteration 1
smoothSolver:  Solving for Ux, Initial residual = 0.00513658, Final residual = 4.24347e-06, No Iterations 4
smoothSolver:  Solving for Uy, Initial residual = 0.00518552, Final residual = 4.22301e-06, No Iterations 4
smoothSolver:  Solving for Uz, Initial residual = 0.0022245, Final residual = 5.79552e-07, No Iterations 2
DICPCG:  Solving for p, Initial residual = 0.000419087, Final residual = 1.96879e-05, No Iterations 605
DICPCG:  Solving for p, Initial residual = 0.000243799, Final residual = 9.5585e-06, No Iterations 5
time step continuity errors : sum local = 1.07969e-08, global = -2.12006e-10, cumulative = -9.48494e-08
DICPCG:  Solving for p, Initial residual = 0.000136377, Final residual = 5.36592e-06, No Iterations 8
DICPCG:  Solving for p, Initial residual = 5.25576e-05, Final residual = 2.48027e-06, No Iterations 9
[...]
ExecutionTime = 2000.96 s  ClockTime = 2001 s

Courant Number mean: 0.166911 max: 612.466
Time = 0.48172

PIMPLE: iteration 1
smoothSolver:  Solving for Ux, Initial residual = 0.0635985, Final residual = 5.43413e-06, No Iterations 8
smoothSolver:  Solving for Uy, Initial residual = 0.0530743, Final residual = 4.266e-06, No Iterations 8
smoothSolver:  Solving for Uz, Initial residual = 0.00598846, Final residual = 8.93429e-06, No Iterations 5
DICPCG:  Solving for p, Initial residual = 0.315925, Final residual = 0.0139907, No Iterations 5
DICPCG:  Solving for p, Initial residual = 0.0559448, Final residual = 8.86225e-07, No Iterations 653
time step continuity errors : sum local = 5.9478e-09, global = 4.1316e-11, cumulative = -3.88692e-08
smoothSolver:  Solving for omega, Initial residual = 0.000653604, Final residual = 6.00745e-06, No Iterations 2
bounding omega, min: -33037.3 max: 2.93764e+06 average: 23137.1
smoothSolver:  Solving for k, Initial residual = 0.058087, Final residual = 4.90557e-06, No Iterations 8
bounding k, min: -0.332691 max: 2.87262 average: 0.00023772
ExecutionTime = 2004.65 s  ClockTime = 2005 s

Courant Number mean: 0.167325 max: 634.464
Time = 0.482796

PIMPLE: iteration 1
smoothSolver:  Solving for Ux, Initial residual = 0.0622295, Final residual = 5.2524e-06, No Iterations 8
smoothSolver:  Solving for Uy, Initial residual = 0.0510074, Final residual = 3.95465e-06, No Iterations 8
smoothSolver:  Solving for Uz, Initial residual = 0.00675389, Final residual = 9.744e-06, No Iterations 5
DICPCG:  Solving for p, Initial residual = 0.281546, Final residual = 0.0126712, No Iterations 5
DICPCG:  Solving for p, Initial residual = 0.0500743, Final residual = 9.49374e-07, No Iterations 653
time step continuity errors : sum local = 7.1472e-09, global = -5.61011e-11, cumulative = -3.89253e-08
smoothSolver:  Solving for omega, Initial residual = 0.000673476, Final residual = 5.99229e-06, No Iterations 2
bounding omega, min: -31730.8 max: 2.93775e+06 average: 23159.2
smoothSolver:  Solving for k, Initial residual = 0.0557056, Final residual = 8.75213e-06, No Iterations 7
bounding k, min: -0.4296 max: 3.34118 average: 0.000279493
ExecutionTime = 2008.22 s  ClockTime = 2008 s

Courant Number mean: 0.167874 max: 653.635
Time = 0.483871

PIMPLE: iteration 1
smoothSolver:  Solving for Ux, Initial residual = 0.0619423, Final residual = 5.13319e-06, No Iterations 8
smoothSolver:  Solving for Uy, Initial residual = 0.0500239, Final residual = 3.82523e-06, No Iterations 8
smoothSolver:  Solving for Uz, Initial residual = 0.00755891, Final residual = 9.66334e-06, No Iterations 5
DICPCG:  Solving for p, Initial residual = 0.277687, Final residual = 0.0123438, No Iterations 5
DICPCG:  Solving for p, Initial residual = 0.0493806, Final residual = 8.99914e-07, No Iterations 653
time step continuity errors : sum local = 6.8411e-09, global = 3.53936e-11, cumulative = -3.88899e-08
smoothSolver:  Solving for omega, Initial residual = 0.00068248, Final residual = 5.88133e-06, No Iterations 2
bounding omega, min: -30818.5 max: 2.93785e+06 average: 23159.8
smoothSolver:  Solving for k, Initial residual = 0.0632178, Final residual = 4.4057e-06, No Iterations 8
bounding k, min: -0.303873 max: 4.07845 average: 0.000335485
ExecutionTime = 2011.92 s  ClockTime = 2012 s

Courant Number mean: 0.168487 max: 670.754
Time = 0.484946

PIMPLE: iteration 1
smoothSolver:  Solving for Ux, Initial residual = 0.0621616, Final residual = 4.57488e-06, No Iterations 8
smoothSolver:  Solving for Uy, Initial residual = 0.0490599, Final residual = 8.99032e-06, No Iterations 7
smoothSolver:  Solving for Uz, Initial residual = 0.00844375, Final residual = 9.94493e-06, No Iterations 5
DICPCG:  Solving for p, Initial residual = 0.25756, Final residual = 0.0111698, No Iterations 5
DICPCG:  Solving for p, Initial residual = 0.0447977, Final residual = 9.16011e-07, No Iterations 653
time step continuity errors : sum local = 7.73283e-09, global = -5.0909e-11, cumulative = -3.89408e-08
smoothSolver:  Solving for omega, Initial residual = 0.000704998, Final residual = 7.07649e-06, No Iterations 2
bounding omega, min: -24397.2 max: 2.93765e+06 average: 23178.5
smoothSolver:  Solving for k, Initial residual = 0.0559814, Final residual = 3.61049e-06, No Iterations 8
bounding k, min: -0.217019 max: 4.09008 average: 0.00039128
ExecutionTime = 2017.28 s  ClockTime = 2017 s

Courant Number mean: 0.169236 max: 684.871
Time = 0.486022

PIMPLE: iteration 1
smoothSolver:  Solving for Ux, Initial residual = 0.0619264, Final residual = 4.89569e-06, No Iterations 8
smoothSolver:  Solving for Uy, Initial residual = 0.0489803, Final residual = 8.19137e-06, No Iterations 7
smoothSolver:  Solving for Uz, Initial residual = 0.00937741, Final residual = 4.04332e-06, No Iterations 6
DICPCG:  Solving for p, Initial residual = 0.250886, Final residual = 0.0109681, No Iterations 5
DICPCG:  Solving for p, Initial residual = 0.0448599, Final residual = 9.9614e-07, No Iterations 653
time step continuity errors : sum local = 8.59703e-09, global = 4.17585e-11, cumulative = -3.88991e-08
smoothSolver:  Solving for omega, Initial residual = 0.000730538, Final residual = 7.98768e-06, No Iterations 2
bounding omega, min: -26093.6 max: 2.93756e+06 average: 23185
smoothSolver:  Solving for k, Initial residual = 0.0621178, Final residual = 9.47399e-06, No Iterations 7
bounding k, min: -0.414135 max: 5.13308 average: 0.000469472
ExecutionTime = 2021.89 s  ClockTime = 2022 s

Courant Number mean: 0.17006 max: 696.825
Time = 0.487097

PIMPLE: iteration 1
smoothSolver:  Solving for Ux, Initial residual = 0.061588, Final residual = 4.04106e-06, No Iterations 8
smoothSolver:  Solving for Uy, Initial residual = 0.0482871, Final residual = 6.65228e-06, No Iterations 7
smoothSolver:  Solving for Uz, Initial residual = 0.0104348, Final residual = 4.12861e-06, No Iterations 6
DICPCG:  Solving for p, Initial residual = 0.228597, Final residual = 0.0100327, No Iterations 5
DICPCG:  Solving for p, Initial residual = 0.0409144, Final residual = 9.48643e-07, No Iterations 653
time step continuity errors : sum local = 9.05671e-09, global = -5.96105e-11, cumulative = -3.89587e-08
smoothSolver:  Solving for omega, Initial residual = 0.0007157, Final residual = 8.8887e-06, No Iterations 2
bounding omega, min: -26072.3 max: 2.93767e+06 average: 23202.8
smoothSolver:  Solving for k, Initial residual = 0.0559219, Final residual = 8.95132e-06, No Iterations 7
bounding k, min: -0.553208 max: 5.85627 average: 0.000545767
ExecutionTime = 2027.76 s  ClockTime = 2028 s

Courant Number mean: 0.171014 max: 702.773
Time = 0.488172

PIMPLE: iteration 1
smoothSolver:  Solving for Ux, Initial residual = 0.0608044, Final residual = 3.92054e-06, No Iterations 8
smoothSolver:  Solving for Uy, Initial residual = 0.0477894, Final residual = 6.24637e-06, No Iterations 7
smoothSolver:  Solving for Uz, Initial residual = 0.0116387, Final residual = 4.21301e-06, No Iterations 6
DICPCG:  Solving for p, Initial residual = 0.22027, Final residual = 0.0103795, No Iterations 5
DICPCG:  Solving for p, Initial residual = 0.0398624, Final residual = 9.71927e-07, No Iterations 651
time step continuity errors : sum local = 9.71103e-09, global = 4.43479e-11, cumulative = -3.89143e-08
smoothSolver:  Solving for omega, Initial residual = 0.000730269, Final residual = 8.60086e-06, No Iterations 2
bounding omega, min: -25069.2 max: 2.93758e+06 average: 23224.2
smoothSolver:  Solving for k, Initial residual = 0.0569172, Final residual = 5.95115e-06, No Iterations 8
bounding k, min: -0.413016 max: 7.72463 average: 0.000642468
ExecutionTime = 2032.84 s  ClockTime = 2033 s

Courant Number mean: 0.172079 max: 705.325
Time = 0.489247

PIMPLE: iteration 1
smoothSolver:  Solving for Ux, Initial residual = 0.0608859, Final residual = 9.36305e-06, No Iterations 7
smoothSolver:  Solving for Uy, Initial residual = 0.0477935, Final residual = 5.9625e-06, No Iterations 7
smoothSolver:  Solving for Uz, Initial residual = 0.0129371, Final residual = 4.80945e-06, No Iterations 6
DICPCG:  Solving for p, Initial residual = 0.207464, Final residual = 0.00920354, No Iterations 5
DICPCG:  Solving for p, Initial residual = 0.0370476, Final residual = 9.23597e-07, No Iterations 649
time step continuity errors : sum local = 1.00349e-08, global = 2.66758e-11, cumulative = -3.88877e-08
smoothSolver:  Solving for omega, Initial residual = 0.000784707, Final residual = 2.91382e-06, No Iterations 3
bounding omega, min: -24235.9 max: 2.9377e+06 average: 23239.3
smoothSolver:  Solving for k, Initial residual = 0.0534035, Final residual = 8.49105e-06, No Iterations 7
bounding k, min: -0.918906 max: 8.39966 average: 0.000716257
ExecutionTime = 2036.68 s  ClockTime = 2037 s

Courant Number mean: 0.17328 max: 703.018
Time = 0.490323

PIMPLE: iteration 1
smoothSolver:  Solving for Ux, Initial residual = 0.0605539, Final residual = 4.5123e-06, No Iterations 8
smoothSolver:  Solving for Uy, Initial residual = 0.0479896, Final residual = 4.91966e-06, No Iterations 8
smoothSolver:  Solving for Uz, Initial residual = 0.014302, Final residual = 6.72917e-06, No Iterations 6
DICPCG:  Solving for p, Initial residual = 0.199334, Final residual = 0.00954292, No Iterations 5
DICPCG:  Solving for p, Initial residual = 0.0360709, Final residual = 9.00705e-07, No Iterations 650
time step continuity errors : sum local = 1.03253e-08, global = 2.81039e-11, cumulative = -3.88596e-08
smoothSolver:  Solving for omega, Initial residual = 0.000802433, Final residual = 3.79167e-06, No Iterations 3
bounding omega, min: -22913.1 max: 2.93792e+06 average: 23247.3
smoothSolver:  Solving for k, Initial residual = 0.0469336, Final residual = 8.24248e-06, No Iterations 7
bounding k, min: -0.384519 max: 7.44341 average: 0.00079936
ExecutionTime = 2040.49 s  ClockTime = 2040 s

Courant Number mean: 0.174588 max: 747.855
Time = 0.491398

PIMPLE: iteration 1
smoothSolver:  Solving for Ux, Initial residual = 0.0609617, Final residual = 3.85556e-06, No Iterations 8
smoothSolver:  Solving for Uy, Initial residual = 0.0482226, Final residual = 9.29333e-06, No Iterations 7
smoothSolver:  Solving for Uz, Initial residual = 0.0158217, Final residual = 7.76883e-06, No Iterations 6
DICPCG:  Solving for p, Initial residual = 0.191551, Final residual = 0.00856741, No Iterations 5
DICPCG:  Solving for p, Initial residual = 0.0338181, Final residual = 9.03548e-07, No Iterations 651
time step continuity errors : sum local = 1.12758e-08, global = -1.65625e-11, cumulative = -3.88761e-08
smoothSolver:  Solving for omega, Initial residual = 0.000826742, Final residual = 3.92599e-06, No Iterations 3
bounding omega, min: -23391.5 max: 2.93835e+06 average: 23282.5
smoothSolver:  Solving for k, Initial residual = 0.0481975, Final residual = 3.80017e-06, No Iterations 8
bounding k, min: -0.936973 max: 9.04383 average: 0.000913202
ExecutionTime = 2045.04 s  ClockTime = 2045 s

Courant Number mean: 0.176041 max: 794.5
Time = 0.492473

PIMPLE: iteration 1
smoothSolver:  Solving for Ux, Initial residual = 0.0613095, Final residual = 4.22459e-06, No Iterations 8
smoothSolver:  Solving for Uy, Initial residual = 0.047704, Final residual = 7.52117e-06, No Iterations 7
smoothSolver:  Solving for Uz, Initial residual = 0.0173385, Final residual = 7.83703e-06, No Iterations 6
DICPCG:  Solving for p, Initial residual = 0.180003, Final residual = 0.008866, No Iterations 5
DICPCG:  Solving for p, Initial residual = 0.0324116, Final residual = 9.68714e-07, No Iterations 652
time step continuity errors : sum local = 1.29538e-08, global = 8.85935e-11, cumulative = -3.87875e-08
smoothSolver:  Solving for omega, Initial residual = 0.000876959, Final residual = 3.24428e-06, No Iterations 3
bounding omega, min: -23846.6 max: 2.93812e+06 average: 23297.8
smoothSolver:  Solving for k, Initial residual = 0.046854, Final residual = 4.21226e-06, No Iterations 7
bounding k, min: -0.341442 max: 11.4073 average: 0.00104671
ExecutionTime = 2049.28 s  ClockTime = 2049 s

Courant Number mean: 0.177685 max: 841.463
Time = 0.493548

PIMPLE: iteration 1
smoothSolver:  Solving for Ux, Initial residual = 0.0600766, Final residual = 3.8795e-06, No Iterations 8
smoothSolver:  Solving for Uy, Initial residual = 0.0476941, Final residual = 7.28849e-06, No Iterations 7
smoothSolver:  Solving for Uz, Initial residual = 0.0190307, Final residual = 8.64492e-06, No Iterations 6
DICPCG:  Solving for p, Initial residual = 0.170308, Final residual = 0.00828881, No Iterations 5
DICPCG:  Solving for p, Initial residual = 0.0303209, Final residual = 8.316e-07, No Iterations 654
time step continuity errors : sum local = 1.18355e-08, global = 2.16139e-11, cumulative = -3.87659e-08
smoothSolver:  Solving for omega, Initial residual = 0.000908957, Final residual = 3.65538e-06, No Iterations 3
bounding omega, min: -24097 max: 2.93817e+06 average: 23312.8
smoothSolver:  Solving for k, Initial residual = 0.0502415, Final residual = 7.53061e-06, No Iterations 7
bounding k, min: -0.252878 max: 13.4443 average: 0.00119575
ExecutionTime = 2053.05 s  ClockTime = 2053 s

Courant Number mean: 0.179456 max: 899.582
Time = 0.494624

PIMPLE: iteration 1
smoothSolver:  Solving for Ux, Initial residual = 0.0593527, Final residual = 9.73899e-06, No Iterations 7
smoothSolver:  Solving for Uy, Initial residual = 0.0476346, Final residual = 6.97487e-06, No Iterations 7
smoothSolver:  Solving for Uz, Initial residual = 0.0207975, Final residual = 9.00756e-06, No Iterations 6
DICPCG:  Solving for p, Initial residual = 0.163503, Final residual = 0.00641981, No Iterations 6
DICPCG:  Solving for p, Initial residual = 0.0282095, Final residual = 9.04214e-07, No Iterations 651
time step continuity errors : sum local = 1.37551e-08, global = 1.10239e-10, cumulative = -3.86557e-08
smoothSolver:  Solving for omega, Initial residual = 0.000930284, Final residual = 3.97783e-06, No Iterations 3
bounding omega, min: -22534.5 max: 2.93845e+06 average: 23335.1
smoothSolver:  Solving for k, Initial residual = 0.0563557, Final residual = 9.69766e-06, No Iterations 7
bounding k, min: -0.126252 max: 15.6141 average: 0.00140506
ExecutionTime = 2056.82 s  ClockTime = 2057 s

Courant Number mean: 0.181404 max: 971.401
Time = 0.495699

PIMPLE: iteration 1
smoothSolver:  Solving for Ux, Initial residual = 0.0594596, Final residual = 9.62356e-06, No Iterations 7
smoothSolver:  Solving for Uy, Initial residual = 0.0482133, Final residual = 6.89537e-06, No Iterations 7
smoothSolver:  Solving for Uz, Initial residual = 0.0226417, Final residual = 9.90791e-06, No Iterations 6
DICPCG:  Solving for p, Initial residual = 0.157073, Final residual = 0.00777189, No Iterations 5
DICPCG:  Solving for p, Initial residual = 0.0282752, Final residual = 9.30366e-07, No Iterations 653
time step continuity errors : sum local = 1.51948e-08, global = 3.51128e-11, cumulative = -3.86206e-08
smoothSolver:  Solving for omega, Initial residual = 0.000990698, Final residual = 3.93179e-06, No Iterations 3
bounding omega, min: -21905.7 max: 2.93813e+06 average: 23371.6
smoothSolver:  Solving for k, Initial residual = 0.0538149, Final residual = 8.30454e-06, No Iterations 8
bounding k, min: -0.150123 max: 19.4389 average: 0.00166009
ExecutionTime = 2060.57 s  ClockTime = 2060 s

Courant Number mean: 0.183489 max: 1049.7
Time = 0.496774

PIMPLE: iteration 1
smoothSolver:  Solving for Ux, Initial residual = 0.059233, Final residual = 9.53222e-06, No Iterations 7
smoothSolver:  Solving for Uy, Initial residual = 0.0485695, Final residual = 7.27608e-06, No Iterations 7
smoothSolver:  Solving for Uz, Initial residual = 0.0243742, Final residual = 4.52165e-06, No Iterations 7
DICPCG:  Solving for p, Initial residual = 0.147701, Final residual = 0.00595843, No Iterations 6
DICPCG:  Solving for p, Initial residual = 0.0257287, Final residual = 9.9999e-07, No Iterations 651
time step continuity errors : sum local = 1.7455e-08, global = 1.12776e-10, cumulative = -3.85078e-08
smoothSolver:  Solving for omega, Initial residual = 0.0010326, Final residual = 6.88352e-06, No Iterations 3
bounding omega, min: -20616.7 max: 2.93789e+06 average: 23387.6
smoothSolver:  Solving for k, Initial residual = 0.0594879, Final residual = 4.49904e-06, No Iterations 9
bounding k, min: -0.44009 max: 20.7096 average: 0.0020072
ExecutionTime = 2064.32 s  ClockTime = 2064 s

Courant Number mean: 0.185786 max: 1126.18
Time = 0.497849

PIMPLE: iteration 1
smoothSolver:  Solving for Ux, Initial residual = 0.0593433, Final residual = 4.837e-06, No Iterations 8
smoothSolver:  Solving for Uy, Initial residual = 0.0492501, Final residual = 9.06086e-06, No Iterations 7
smoothSolver:  Solving for Uz, Initial residual = 0.0258823, Final residual = 4.99528e-06, No Iterations 7
DICPCG:  Solving for p, Initial residual = 0.143452, Final residual = 0.00684513, No Iterations 5
DICPCG:  Solving for p, Initial residual = 0.0248999, Final residual = 9.89342e-07, No Iterations 650
time step continuity errors : sum local = 1.84209e-08, global = -1.06789e-10, cumulative = -3.86146e-08
smoothSolver:  Solving for omega, Initial residual = 0.00119592, Final residual = 6.73778e-06, No Iterations 3
bounding omega, min: -22723.5 max: 2.93784e+06 average: 23440.7
smoothSolver:  Solving for k, Initial residual = 0.0571469, Final residual = 5.71826e-06, No Iterations 8
bounding k, min: -0.242048 max: 20.2337 average: 0.00240899
ExecutionTime = 2068.19 s  ClockTime = 2068 s

Courant Number mean: 0.18829 max: 1207.01
Time = 0.498925

PIMPLE: iteration 1
smoothSolver:  Solving for Ux, Initial residual = 0.0580738, Final residual = 4.71232e-06, No Iterations 8
smoothSolver:  Solving for Uy, Initial residual = 0.0492967, Final residual = 9.85936e-06, No Iterations 7
smoothSolver:  Solving for Uz, Initial residual = 0.0275198, Final residual = 4.82523e-06, No Iterations 7
DICPCG:  Solving for p, Initial residual = 0.141272, Final residual = 0.0056508, No Iterations 6
DICPCG:  Solving for p, Initial residual = 0.0232104, Final residual = 9.78412e-07, No Iterations 650
time step continuity errors : sum local = 1.92637e-08, global = 2.36183e-10, cumulative = -3.83784e-08
smoothSolver:  Solving for omega, Initial residual = 0.00126693, Final residual = 9.93314e-06, No Iterations 3
bounding omega, min: -22369.6 max: 2.93812e+06 average: 23468.6
smoothSolver:  Solving for k, Initial residual = 0.0609425, Final residual = 5.89668e-06, No Iterations 9
bounding k, min: -0.297014 max: 18.7118 average: 0.00290071
ExecutionTime = 2071.95 s  ClockTime = 2072 s

Courant Number mean: 0.191078 max: 1288.39
Time = 0.5

PIMPLE: iteration 1
smoothSolver:  Solving for Ux, Initial residual = 0.0582046, Final residual = 3.95561e-06, No Iterations 8
smoothSolver:  Solving for Uy, Initial residual = 0.0488349, Final residual = 7.52978e-06, No Iterations 7
smoothSolver:  Solving for Uz, Initial residual = 0.0295366, Final residual = 6.33397e-06, No Iterations 7
DICPCG:  Solving for p, Initial residual = 0.13639, Final residual = 0.0063952, No Iterations 5
DICPCG:  Solving for p, Initial residual = 0.0234927, Final residual = 8.71739e-07, No Iterations 648
time step continuity errors : sum local = 1.82808e-08, global = -3.74237e-11, cumulative = -3.84158e-08
smoothSolver:  Solving for omega, Initial residual = 0.00135663, Final residual = 4.75091e-06, No Iterations 4
bounding omega, min: -24305.2 max: 2.93862e+06 average: 23527.8
smoothSolver:  Solving for k, Initial residual = 0.0643615, Final residual = 5.02722e-06, No Iterations 8
bounding k, min: -0.186293 max: 23.0443 average: 0.0034626
ExecutionTime = 2075.94 s  ClockTime = 2076 s

wallShearStress wallShearStress1 write:
    writing field wallShearStress
    min/max(wall) = (-0.416628 -1.29913 -1.37312), (0.645769 0.579195 1.23419)
surfaceFieldValue averageWallShearStress write:
    areaAverage(wall) of wallShearStress = (-1.15757e-05 -4.17668e-06 -0.000127472)

End

Finalising parallel run
