/*---------------------------------------------------------------------------*\
| =========                 |                                                 |
| \\      /  F ield         | OpenFOAM: The Open Source CFD Toolbox           |
|  \\    /   O peration     | Version:  2206                                  |
|   \\  /    A nd           | Website:  www.openfoam.com                      |
|    \\/     M anipulation  |                                                 |
\*---------------------------------------------------------------------------*/
Build  : _76d719d1-20220624 OPENFOAM=2206 version=2206
Arch   : "LSB;label=32;scalar=64"
Exec   : pimpleFoam -parallel
Date   : Nov 23 2023
Time   : 12:45:37
Host   : MSI
PID    : 11742
I/O    : uncollated
Case   : /home/baqer/Git-hub-OpenFoam/inter-plus/kOmagaSST
nProcs : 6
Hosts  :
(
    (MSI 6)
)
Pstream initialized with:
    floatTransfer      : 0
    nProcsSimpleSum    : 0
    commsType          : nonBlocking
    polling iterations : 0
trapFpe: Floating point exception trapping enabled (FOAM_SIGFPE).
fileModificationChecking : Monitoring run-time modified files using timeStampMaster (fileModificationSkew 5, maxFileModificationPolls 20)
allowSystemOperations : Allowing user-supplied system call operations

// * * * * * * * * * * * * * * * * * * * * * * * * * * * * * * * * * * * * * //
Create time

Create mesh for time = 0


PIMPLE: Operating solver in PISO mode

Reading field p

Reading field U

Reading/calculating face flux field phi

Selecting incompressible transport model Newtonian
Selecting turbulence model type RAS
Selecting RAS turbulence model kOmegaSST
Selecting patchDistMethod meshWave
RAS
{
    RASModel        kOmegaSST;
    turbulence      on;
    printCoeffs     on;
    alphaK1         0.85;
    alphaK2         1;
    alphaOmega1     0.5;
    alphaOmega2     0.856;
    gamma1          0.555556;
    gamma2          0.44;
    beta1           0.075;
    beta2           0.0828;
    betaStar        0.09;
    a1              0.31;
    b1              1;
    c1              10;
    F3              false;
    decayControl    false;
    kInf            0;
    omegaInf        0;
}

No MRF models present

No finite volume options present
Courant Number mean: 4.01816 max: 235.123
Courant Number mean: 0.170895 max: 9.9999

Starting time loop

Courant Number mean: 0.170895 max: 9.9999
deltaT = 0.00106326
Time = 0.00106326

PIMPLE: iteration 1
smoothSolver:  Solving for Ux, Initial residual = 1, Final residual = 6.20751e-06, No Iterations 11
smoothSolver:  Solving for Uy, Initial residual = 1, Final residual = 6.2454e-06, No Iterations 11
smoothSolver:  Solving for Uz, Initial residual = 1, Final residual = 5.06803e-06, No Iterations 9
DICPCG:  Solving for p, Initial residual = 1, Final residual = 0.0497836, No Iterations 600
DICPCG:  Solving for p, Initial residual = 0.0141122, Final residual = 0.000578201, No Iterations 5
time step continuity errors : sum local = 5.9827e-06, global = 1.40052e-07, cumulative = 1.40052e-07
DICPCG:  Solving for p, Initial residual = 0.00407404, Final residual = 0.000184047, No Iterations 11
DICPCG:  Solving for p, Initial residual = 0.00109654, Final residual = 5.41243e-05, No Iterations 586
time step continuity errors : sum local = 5.69441e-07, global = -6.43156e-09, cumulative = 1.33621e-07
DICPCG:  Solving for p, Initial residual = 0.00136355, Final residual = 6.39349e-05, No Iterations 8
DICPCG:  Solving for p, Initial residual = 0.000313855, Final residual = 9.67015e-07, No Iterations 596
time step continuity errors : sum local = 9.56987e-09, global = -2.65799e-11, cumulative = 1.33594e-07
smoothSolver:  Solving for omega, Initial residual = 0.0141564, Final residual = 6.57387e-06, No Iterations 5
bounding omega, min: -720.465 max: 2.93747e+06 average: 29127.5
smoothSolver:  Solving for k, Initial residual = 1, Final residual = 4.9816e-06, No Iterations 3
ExecutionTime = 10.03 s  ClockTime = 10 s

Courant Number mean: 0.170862 max: 10.0066
deltaT = 0.0010627
Time = 0.00212596

PIMPLE: iteration 1
smoothSolver:  Solving for Ux, Initial residual = 0.322868, Final residual = 5.25723e-06, No Iterations 8
smoothSolver:  Solving for Uy, Initial residual = 0.322862, Final residual = 5.24577e-06, No Iterations 8
smoothSolver:  Solving for Uz, Initial residual = 0.137031, Final residual = 8.17327e-06, No Iterations 3
DICPCG:  Solving for p, Initial residual = 0.00562528, Final residual = 0.000269034, No Iterations 595
DICPCG:  Solving for p, Initial residual = 0.0139998, Final residual = 0.000635163, No Iterations 3
time step continuity errors : sum local = 3.52188e-06, global = -1.44129e-07, cumulative = -1.05349e-08
DICPCG:  Solving for p, Initial residual = 0.00293935, Final residual = 0.000140785, No Iterations 11
DICPCG:  Solving for p, Initial residual = 0.000888602, Final residual = 4.38035e-05, No Iterations 592
time step continuity errors : sum local = 2.3924e-07, global = 2.31368e-09, cumulative = -8.22126e-09
DICPCG:  Solving for p, Initial residual = 0.00101587, Final residual = 4.64969e-05, No Iterations 6
DICPCG:  Solving for p, Initial residual = 0.000299698, Final residual = 8.42677e-07, No Iterations 621
time step continuity errors : sum local = 4.77848e-09, global = -3.76351e-11, cumulative = -8.2589e-09
smoothSolver:  Solving for omega, Initial residual = 0.0265293, Final residual = 1.33674e-06, No Iterations 2
bounding omega, min: -17.8712 max: 2.93747e+06 average: 21953.4
smoothSolver:  Solving for k, Initial residual = 0.114499, Final residual = 6.39041e-07, No Iterations 3
ExecutionTime = 19.77 s  ClockTime = 19 s

Courant Number mean: 0.170445 max: 10.0153
deltaT = 0.00106101
Time = 0.00318697

PIMPLE: iteration 1
smoothSolver:  Solving for Ux, Initial residual = 0.145093, Final residual = 4.21451e-06, No Iterations 7
smoothSolver:  Solving for Uy, Initial residual = 0.145664, Final residual = 4.18436e-06, No Iterations 7
smoothSolver:  Solving for Uz, Initial residual = 0.055634, Final residual = 2.53842e-06, No Iterations 3
DICPCG:  Solving for p, Initial residual = 0.00486467, Final residual = 0.000226957, No Iterations 595
DICPCG:  Solving for p, Initial residual = 0.00501937, Final residual = 0.000231172, No Iterations 3
time step continuity errors : sum local = 9.97788e-07, global = -3.86328e-08, cumulative = -4.68917e-08
DICPCG:  Solving for p, Initial residual = 0.00133719, Final residual = 6.11171e-05, No Iterations 11
DICPCG:  Solving for p, Initial residual = 0.000389631, Final residual = 1.93716e-05, No Iterations 587
time step continuity errors : sum local = 8.31783e-08, global = -6.15494e-10, cumulative = -4.75072e-08
DICPCG:  Solving for p, Initial residual = 0.000444761, Final residual = 1.8306e-05, No Iterations 5
DICPCG:  Solving for p, Initial residual = 0.000146446, Final residual = 9.38536e-07, No Iterations 612
time step continuity errors : sum local = 4.08981e-09, global = 9.21185e-13, cumulative = -4.75062e-08
smoothSolver:  Solving for omega, Initial residual = 0.00121819, Final residual = 7.23072e-06, No Iterations 2
bounding omega, min: -19.685 max: 2.93746e+06 average: 23830
smoothSolver:  Solving for k, Initial residual = 0.2732, Final residual = 4.20217e-07, No Iterations 3
ExecutionTime = 28.45 s  ClockTime = 28 s

Courant Number mean: 0.169931 max: 10.0198
deltaT = 0.00105876
Time = 0.00424572

PIMPLE: iteration 1
smoothSolver:  Solving for Ux, Initial residual = 0.0855274, Final residual = 5.75092e-06, No Iterations 6
smoothSolver:  Solving for Uy, Initial residual = 0.0839897, Final residual = 5.74357e-06, No Iterations 6
smoothSolver:  Solving for Uz, Initial residual = 0.0334566, Final residual = 1.35028e-06, No Iterations 3
DICPCG:  Solving for p, Initial residual = 0.00318322, Final residual = 0.000138438, No Iterations 598
DICPCG:  Solving for p, Initial residual = 0.0035415, Final residual = 0.000147435, No Iterations 3
time step continuity errors : sum local = 5.21711e-07, global = -2.2591e-08, cumulative = -7.00972e-08
DICPCG:  Solving for p, Initial residual = 0.000856949, Final residual = 4.14779e-05, No Iterations 14
DICPCG:  Solving for p, Initial residual = 0.000258411, Final residual = 1.25549e-05, No Iterations 583
time step continuity errors : sum local = 4.42684e-08, global = -1.66819e-10, cumulative = -7.02641e-08
DICPCG:  Solving for p, Initial residual = 0.000292705, Final residual = 1.18823e-05, No Iterations 5
DICPCG:  Solving for p, Initial residual = 9.14702e-05, Final residual = 9.80758e-07, No Iterations 599
time step continuity errors : sum local = 3.49221e-09, global = -1.31887e-11, cumulative = -7.02773e-08
smoothSolver:  Solving for omega, Initial residual = 0.00263487, Final residual = 4.9935e-07, No Iterations 2
bounding omega, min: -18.052 max: 2.93746e+06 average: 22256.1
smoothSolver:  Solving for k, Initial residual = 0.213547, Final residual = 2.90616e-07, No Iterations 3
ExecutionTime = 37.02 s  ClockTime = 37 s

Courant Number mean: 0.169388 max: 10.0217
deltaT = 0.00105651
Time = 0.00530224

PIMPLE: iteration 1
smoothSolver:  Solving for Ux, Initial residual = 0.0578373, Final residual = 9.46332e-06, No Iterations 5
smoothSolver:  Solving for Uy, Initial residual = 0.0562928, Final residual = 9.47655e-06, No Iterations 5
smoothSolver:  Solving for Uz, Initial residual = 0.0234926, Final residual = 8.94968e-07, No Iterations 3
DICPCG:  Solving for p, Initial residual = 0.00304995, Final residual = 0.000152101, No Iterations 597
DICPCG:  Solving for p, Initial residual = 0.00263361, Final residual = 0.000120531, No Iterations 3
time step continuity errors : sum local = 3.69083e-07, global = -1.61483e-08, cumulative = -8.64256e-08
DICPCG:  Solving for p, Initial residual = 0.000694206, Final residual = 3.34405e-05, No Iterations 14
DICPCG:  Solving for p, Initial residual = 0.000224413, Final residual = 1.08927e-05, No Iterations 587
time step continuity errors : sum local = 3.32681e-08, global = 1.99411e-10, cumulative = -8.62262e-08
DICPCG:  Solving for p, Initial residual = 0.000236693, Final residual = 1.14785e-05, No Iterations 5
DICPCG:  Solving for p, Initial residual = 8.9605e-05, Final residual = 9.74342e-07, No Iterations 602
time step continuity errors : sum local = 2.99621e-09, global = -2.55734e-11, cumulative = -8.62517e-08
smoothSolver:  Solving for omega, Initial residual = 0.000653899, Final residual = 2.37883e-06, No Iterations 2
bounding omega, min: -35.5288 max: 2.93746e+06 average: 23175.4
smoothSolver:  Solving for k, Initial residual = 0.142509, Final residual = 7.74525e-06, No Iterations 2
ExecutionTime = 45.46 s  ClockTime = 45 s

Courant Number mean: 0.168877 max: 10.0223
deltaT = 0.00105428
Time = 0.00635652

PIMPLE: iteration 1
smoothSolver:  Solving for Ux, Initial residual = 0.0425988, Final residual = 7.03433e-06, No Iterations 5
smoothSolver:  Solving for Uy, Initial residual = 0.0423387, Final residual = 7.05063e-06, No Iterations 5
smoothSolver:  Solving for Uz, Initial residual = 0.0182709, Final residual = 8.52197e-06, No Iterations 2
DICPCG:  Solving for p, Initial residual = 0.0030598, Final residual = 0.000141526, No Iterations 599
DICPCG:  Solving for p, Initial residual = 0.00204354, Final residual = 0.000100876, No Iterations 4
time step continuity errors : sum local = 2.76589e-07, global = -1.19067e-08, cumulative = -9.81584e-08
DICPCG:  Solving for p, Initial residual = 0.00063794, Final residual = 3.11343e-05, No Iterations 10
DICPCG:  Solving for p, Initial residual = 0.000212717, Final residual = 1.04714e-05, No Iterations 588
time step continuity errors : sum local = 2.86554e-08, global = 1.32581e-10, cumulative = -9.80258e-08
DICPCG:  Solving for p, Initial residual = 0.000214903, Final residual = 1.07068e-05, No Iterations 5
DICPCG:  Solving for p, Initial residual = 9.16139e-05, Final residual = 9.94828e-07, No Iterations 611
time step continuity errors : sum local = 2.73621e-09, global = -1.64354e-11, cumulative = -9.80423e-08
smoothSolver:  Solving for omega, Initial residual = 0.000951469, Final residual = 4.10782e-07, No Iterations 2
bounding omega, min: -12.4547 max: 2.93746e+06 average: 22459.9
smoothSolver:  Solving for k, Initial residual = 0.0863452, Final residual = 5.08777e-06, No Iterations 2
ExecutionTime = 53.88 s  ClockTime = 53 s

Courant Number mean: 0.168387 max: 10.0202
deltaT = 0.00105205
Time = 0.00740857

PIMPLE: iteration 1
smoothSolver:  Solving for Ux, Initial residual = 0.033308, Final residual = 5.46103e-06, No Iterations 5
smoothSolver:  Solving for Uy, Initial residual = 0.0336219, Final residual = 5.47048e-06, No Iterations 5
smoothSolver:  Solving for Uz, Initial residual = 0.0150242, Final residual = 6.5341e-06, No Iterations 2
DICPCG:  Solving for p, Initial residual = 0.00221465, Final residual = 0.000104756, No Iterations 601
DICPCG:  Solving for p, Initial residual = 0.0016556, Final residual = 8.15195e-05, No Iterations 3
time step continuity errors : sum local = 2.04681e-07, global = -8.91935e-09, cumulative = -1.06962e-07
DICPCG:  Solving for p, Initial residual = 0.000578381, Final residual = 2.61545e-05, No Iterations 9
DICPCG:  Solving for p, Initial residual = 0.000204294, Final residual = 1.01093e-05, No Iterations 13
time step continuity errors : sum local = 2.53449e-08, global = 2.41669e-09, cumulative = -1.04545e-07
DICPCG:  Solving for p, Initial residual = 0.000178219, Final residual = 8.83795e-06, No Iterations 11
DICPCG:  Solving for p, Initial residual = 9.16992e-05, Final residual = 9.59359e-07, No Iterations 596
time step continuity errors : sum local = 2.40536e-09, global = 1.1697e-12, cumulative = -1.04544e-07
smoothSolver:  Solving for omega, Initial residual = 0.00041029, Final residual = 9.79751e-07, No Iterations 2
bounding omega, min: -42.5132 max: 2.93746e+06 average: 22940.8
smoothSolver:  Solving for k, Initial residual = 0.05205, Final residual = 3.60554e-06, No Iterations 2
ExecutionTime = 59.91 s  ClockTime = 59 s

Courant Number mean: 0.167913 max: 10.0143
deltaT = 0.00105039
Time = 0.00845896

PIMPLE: iteration 1
smoothSolver:  Solving for Ux, Initial residual = 0.0270446, Final residual = 4.62503e-06, No Iterations 5
smoothSolver:  Solving for Uy, Initial residual = 0.0274824, Final residual = 4.62074e-06, No Iterations 5
smoothSolver:  Solving for Uz, Initial residual = 0.0128029, Final residual = 5.24993e-06, No Iterations 2
DICPCG:  Solving for p, Initial residual = 0.00195385, Final residual = 9.50547e-05, No Iterations 602
DICPCG:  Solving for p, Initial residual = 0.00138428, Final residual = 6.77786e-05, No Iterations 3
time step continuity errors : sum local = 1.5845e-07, global = -6.59156e-09, cumulative = -1.11135e-07
DICPCG:  Solving for p, Initial residual = 0.000525093, Final residual = 2.37749e-05, No Iterations 8
DICPCG:  Solving for p, Initial residual = 0.000190537, Final residual = 9.29921e-06, No Iterations 11
time step continuity errors : sum local = 2.17125e-08, global = 2.13325e-09, cumulative = -1.09002e-07
DICPCG:  Solving for p, Initial residual = 0.000164867, Final residual = 8.07492e-06, No Iterations 8
DICPCG:  Solving for p, Initial residual = 8.77219e-05, Final residual = 8.85799e-07, No Iterations 592
time step continuity errors : sum local = 2.06838e-09, global = -1.95004e-12, cumulative = -1.09004e-07
smoothSolver:  Solving for omega, Initial residual = 0.000439411, Final residual = 9.59027e-06, No Iterations 1
bounding omega, min: -9.28944 max: 2.93746e+06 average: 22598.6
smoothSolver:  Solving for k, Initial residual = 0.034455, Final residual = 3.07459e-06, No Iterations 2
ExecutionTime = 66.02 s  ClockTime = 66 s

Courant Number mean: 0.167538 max: 10.0096
deltaT = 0.00104928
Time = 0.00950825

PIMPLE: iteration 1
smoothSolver:  Solving for Ux, Initial residual = 0.0223364, Final residual = 4.19708e-06, No Iterations 5
smoothSolver:  Solving for Uy, Initial residual = 0.0226657, Final residual = 4.19444e-06, No Iterations 5
smoothSolver:  Solving for Uz, Initial residual = 0.011166, Final residual = 4.36039e-06, No Iterations 2
DICPCG:  Solving for p, Initial residual = 0.00160473, Final residual = 7.96807e-05, No Iterations 603
DICPCG:  Solving for p, Initial residual = 0.00119434, Final residual = 5.14384e-05, No Iterations 4
time step continuity errors : sum local = 1.13204e-07, global = -4.62717e-09, cumulative = -1.13631e-07
DICPCG:  Solving for p, Initial residual = 0.000475671, Final residual = 2.29201e-05, No Iterations 7
DICPCG:  Solving for p, Initial residual = 0.000174988, Final residual = 8.6827e-06, No Iterations 10
time step continuity errors : sum local = 1.90884e-08, global = 2.36122e-09, cumulative = -1.1127e-07
DICPCG:  Solving for p, Initial residual = 0.000157618, Final residual = 7.73395e-06, No Iterations 7
DICPCG:  Solving for p, Initial residual = 8.64409e-05, Final residual = 8.82872e-07, No Iterations 591
time step continuity errors : sum local = 1.94107e-09, global = 6.14906e-12, cumulative = -1.11264e-07
smoothSolver:  Solving for omega, Initial residual = 0.000240091, Final residual = 7.75103e-06, No Iterations 1
bounding omega, min: -44.4187 max: 2.93746e+06 average: 22823.9
smoothSolver:  Solving for k, Initial residual = 0.0248263, Final residual = 2.20852e-06, No Iterations 2
ExecutionTime = 71.92 s  ClockTime = 71 s

Courant Number mean: 0.167259 max: 10.0067
deltaT = 0.00104873
Time = 0.010557

PIMPLE: iteration 1
smoothSolver:  Solving for Ux, Initial residual = 0.0188028, Final residual = 3.92203e-06, No Iterations 5
smoothSolver:  Solving for Uy, Initial residual = 0.0190769, Final residual = 3.9172e-06, No Iterations 5
smoothSolver:  Solving for Uz, Initial residual = 0.00988628, Final residual = 3.72213e-06, No Iterations 2
DICPCG:  Solving for p, Initial residual = 0.00139941, Final residual = 6.1487e-05, No Iterations 604
DICPCG:  Solving for p, Initial residual = 0.00104779, Final residual = 4.62563e-05, No Iterations 4
time step continuity errors : sum local = 9.67068e-08, global = -3.49226e-09, cumulative = -1.14756e-07
DICPCG:  Solving for p, Initial residual = 0.000423384, Final residual = 1.90133e-05, No Iterations 7
DICPCG:  Solving for p, Initial residual = 0.000153112, Final residual = 6.84669e-06, No Iterations 11
time step continuity errors : sum local = 1.43013e-08, global = 2.92222e-09, cumulative = -1.11834e-07
DICPCG:  Solving for p, Initial residual = 0.000137638, Final residual = 6.58918e-06, No Iterations 572
DICPCG:  Solving for p, Initial residual = 9.39832e-05, Final residual = 8.90748e-07, No Iterations 33
time step continuity errors : sum local = 1.86588e-09, global = 1.05177e-10, cumulative = -1.11729e-07
smoothSolver:  Solving for omega, Initial residual = 0.000203888, Final residual = 4.80629e-06, No Iterations 1
bounding omega, min: -12.5069 max: 2.93746e+06 average: 22678.5
smoothSolver:  Solving for k, Initial residual = 0.0190967, Final residual = 1.88244e-06, No Iterations 2
ExecutionTime = 77.88 s  ClockTime = 77 s

Courant Number mean: 0.167075 max: 10.0047
deltaT = 0.00104818
Time = 0.0116052

PIMPLE: iteration 1
smoothSolver:  Solving for Ux, Initial residual = 0.0160073, Final residual = 3.68061e-06, No Iterations 5
smoothSolver:  Solving for Uy, Initial residual = 0.0162027, Final residual = 3.67721e-06, No Iterations 5
smoothSolver:  Solving for Uz, Initial residual = 0.00892923, Final residual = 3.23944e-06, No Iterations 2
DICPCG:  Solving for p, Initial residual = 0.00124738, Final residual = 5.61002e-05, No Iterations 604
DICPCG:  Solving for p, Initial residual = 0.000950335, Final residual = 4.26801e-05, No Iterations 4
time step continuity errors : sum local = 8.52429e-08, global = -2.97949e-09, cumulative = -1.14708e-07
DICPCG:  Solving for p, Initial residual = 0.000397418, Final residual = 1.81378e-05, No Iterations 7
DICPCG:  Solving for p, Initial residual = 0.000145733, Final residual = 6.93188e-06, No Iterations 571
time step continuity errors : sum local = 1.38336e-08, global = 1.75726e-10, cumulative = -1.14532e-07
DICPCG:  Solving for p, Initial residual = 0.000142269, Final residual = 6.39001e-06, No Iterations 5
DICPCG:  Solving for p, Initial residual = 7.43397e-05, Final residual = 9.90842e-07, No Iterations 549
time step continuity errors : sum local = 1.98159e-09, global = 5.13509e-11, cumulative = -1.14481e-07
smoothSolver:  Solving for omega, Initial residual = 0.000133805, Final residual = 3.67345e-06, No Iterations 1
bounding omega, min: -44.049 max: 2.93746e+06 average: 22785.1
smoothSolver:  Solving for k, Initial residual = 0.0154364, Final residual = 1.62762e-06, No Iterations 2
ExecutionTime = 85.97 s  ClockTime = 86 s

Courant Number mean: 0.166896 max: 9.9989
deltaT = 0.00104818
Time = 0.0126533

PIMPLE: iteration 1
smoothSolver:  Solving for Ux, Initial residual = 0.013924, Final residual = 9.93552e-06, No Iterations 4
smoothSolver:  Solving for Uy, Initial residual = 0.0140186, Final residual = 9.91989e-06, No Iterations 4
smoothSolver:  Solving for Uz, Initial residual = 0.00818195, Final residual = 2.8687e-06, No Iterations 2
DICPCG:  Solving for p, Initial residual = 0.00113928, Final residual = 5.17334e-05, No Iterations 604
DICPCG:  Solving for p, Initial residual = 0.000853652, Final residual = 3.63995e-05, No Iterations 4
time step continuity errors : sum local = 6.98523e-08, global = -2.59983e-09, cumulative = -1.17081e-07
DICPCG:  Solving for p, Initial residual = 0.000365149, Final residual = 1.68375e-05, No Iterations 7
DICPCG:  Solving for p, Initial residual = 0.000130582, Final residual = 6.41819e-06, No Iterations 11
time step continuity errors : sum local = 1.23082e-08, global = 2.25165e-09, cumulative = -1.14829e-07
DICPCG:  Solving for p, Initial residual = 0.000119109, Final residual = 5.7423e-06, No Iterations 573
DICPCG:  Solving for p, Initial residual = 7.75137e-05, Final residual = 9.06694e-07, No Iterations 46
time step continuity errors : sum local = 1.74258e-09, global = 1.22048e-10, cumulative = -1.14707e-07
smoothSolver:  Solving for omega, Initial residual = 0.000107342, Final residual = 2.51349e-06, No Iterations 1
bounding omega, min: -11.7141 max: 2.93746e+06 average: 22721.2
smoothSolver:  Solving for k, Initial residual = 0.0129708, Final residual = 1.45369e-06, No Iterations 2
ExecutionTime = 92.1 s  ClockTime = 92 s

Courant Number mean: 0.166809 max: 9.99503
deltaT = 0.00104873
Time = 0.0137021

PIMPLE: iteration 1
smoothSolver:  Solving for Ux, Initial residual = 0.0122108, Final residual = 9.48058e-06, No Iterations 4
smoothSolver:  Solving for Uy, Initial residual = 0.0122824, Final residual = 9.45961e-06, No Iterations 4
smoothSolver:  Solving for Uz, Initial residual = 0.00756316, Final residual = 2.57626e-06, No Iterations 2
DICPCG:  Solving for p, Initial residual = 0.00105265, Final residual = 4.5763e-05, No Iterations 604
DICPCG:  Solving for p, Initial residual = 0.000788771, Final residual = 3.28166e-05, No Iterations 4
time step continuity errors : sum local = 6.07666e-08, global = -1.46207e-09, cumulative = -1.16169e-07
DICPCG:  Solving for p, Initial residual = 0.000346127, Final residual = 1.59335e-05, No Iterations 8
DICPCG:  Solving for p, Initial residual = 0.000129326, Final residual = 6.36096e-06, No Iterations 566
time step continuity errors : sum local = 1.1771e-08, global = 1.9355e-10, cumulative = -1.15976e-07
DICPCG:  Solving for p, Initial residual = 0.000124059, Final residual = 5.35918e-06, No Iterations 5
DICPCG:  Solving for p, Initial residual = 6.49132e-05, Final residual = 9.94933e-07, No Iterations 69
time step continuity errors : sum local = 1.84426e-09, global = 2.09842e-10, cumulative = -1.15766e-07
smoothSolver:  Solving for omega, Initial residual = 7.81061e-05, Final residual = 1.89117e-06, No Iterations 1
bounding omega, min: -44.7974 max: 2.93746e+06 average: 22773
smoothSolver:  Solving for k, Initial residual = 0.0112267, Final residual = 1.30947e-06, No Iterations 2
ExecutionTime = 98.16 s  ClockTime = 98 s

Courant Number mean: 0.166813 max: 9.99351
deltaT = 0.00104929
Time = 0.0147514

PIMPLE: iteration 1
smoothSolver:  Solving for Ux, Initial residual = 0.0110657, Final residual = 9.12599e-06, No Iterations 4
smoothSolver:  Solving for Uy, Initial residual = 0.0110773, Final residual = 9.10239e-06, No Iterations 4
smoothSolver:  Solving for Uz, Initial residual = 0.00703602, Final residual = 2.33678e-06, No Iterations 2
DICPCG:  Solving for p, Initial residual = 0.00100736, Final residual = 4.54854e-05, No Iterations 604
DICPCG:  Solving for p, Initial residual = 0.000725647, Final residual = 3.22959e-05, No Iterations 4
time step continuity errors : sum local = 5.79096e-08, global = -9.94649e-10, cumulative = -1.16761e-07
DICPCG:  Solving for p, Initial residual = 0.000334028, Final residual = 1.63525e-05, No Iterations 7
DICPCG:  Solving for p, Initial residual = 0.000124514, Final residual = 6.21515e-06, No Iterations 29
time step continuity errors : sum local = 1.1138e-08, global = 9.28223e-10, cumulative = -1.15832e-07
DICPCG:  Solving for p, Initial residual = 0.000113706, Final residual = 5.4524e-06, No Iterations 5
DICPCG:  Solving for p, Initial residual = 6.22455e-05, Final residual = 9.77777e-07, No Iterations 563
time step continuity errors : sum local = 1.75233e-09, global = -4.93877e-12, cumulative = -1.15837e-07
smoothSolver:  Solving for omega, Initial residual = 6.28205e-05, Final residual = 1.37248e-06, No Iterations 1
bounding omega, min: -5.89848 max: 2.93746e+06 average: 22745.3
smoothSolver:  Solving for k, Initial residual = 0.0099381, Final residual = 1.20455e-06, No Iterations 2
ExecutionTime = 104.18 s  ClockTime = 104 s

Courant Number mean: 0.166821 max: 9.98942
deltaT = 0.0010504
Time = 0.0158017

PIMPLE: iteration 1
smoothSolver:  Solving for Ux, Initial residual = 0.0103785, Final residual = 8.81151e-06, No Iterations 4
smoothSolver:  Solving for Uy, Initial residual = 0.0103592, Final residual = 8.78223e-06, No Iterations 4
smoothSolver:  Solving for Uz, Initial residual = 0.00658661, Final residual = 2.14117e-06, No Iterations 2
DICPCG:  Solving for p, Initial residual = 0.000989438, Final residual = 4.64811e-05, No Iterations 603
DICPCG:  Solving for p, Initial residual = 0.00069048, Final residual = 3.20595e-05, No Iterations 4
time step continuity errors : sum local = 5.58147e-08, global = -1.08732e-09, cumulative = -1.16925e-07
DICPCG:  Solving for p, Initial residual = 0.000319203, Final residual = 1.54793e-05, No Iterations 8
DICPCG:  Solving for p, Initial residual = 0.000124204, Final residual = 6.09434e-06, No Iterations 14
time step continuity errors : sum local = 1.06043e-08, global = 1.51056e-09, cumulative = -1.15414e-07
DICPCG:  Solving for p, Initial residual = 0.000113749, Final residual = 5.2784e-06, No Iterations 5
DICPCG:  Solving for p, Initial residual = 6.41368e-05, Final residual = 9.81804e-07, No Iterations 583
time step continuity errors : sum local = 1.70843e-09, global = -3.2141e-11, cumulative = -1.15446e-07
smoothSolver:  Solving for omega, Initial residual = 4.91438e-05, Final residual = 1.04716e-06, No Iterations 1
bounding omega, min: -44.7502 max: 2.93746e+06 average: 22771.3
smoothSolver:  Solving for k, Initial residual = 0.00895564, Final residual = 1.1178e-06, No Iterations 2
ExecutionTime = 110.86 s  ClockTime = 110 s

Courant Number mean: 0.166919 max: 9.9882
deltaT = 0.00105151
Time = 0.0168533

PIMPLE: iteration 1
smoothSolver:  Solving for Ux, Initial residual = 0.0100018, Final residual = 8.52218e-06, No Iterations 4
smoothSolver:  Solving for Uy, Initial residual = 0.00981291, Final residual = 8.48754e-06, No Iterations 4
smoothSolver:  Solving for Uz, Initial residual = 0.00619172, Final residual = 1.97556e-06, No Iterations 2
DICPCG:  Solving for p, Initial residual = 0.000935579, Final residual = 4.43932e-05, No Iterations 602
DICPCG:  Solving for p, Initial residual = 0.00064622, Final residual = 2.39913e-05, No Iterations 5
time step continuity errors : sum local = 4.06656e-08, global = -8.0136e-10, cumulative = -1.16248e-07
DICPCG:  Solving for p, Initial residual = 0.000312589, Final residual = 1.34163e-05, No Iterations 9
DICPCG:  Solving for p, Initial residual = 0.000123148, Final residual = 6.09572e-06, No Iterations 13
time step continuity errors : sum local = 1.03275e-08, global = 1.40339e-09, cumulative = -1.14844e-07
DICPCG:  Solving for p, Initial residual = 0.000112723, Final residual = 4.68848e-06, No Iterations 5
DICPCG:  Solving for p, Initial residual = 6.13189e-05, Final residual = 9.51941e-07, No Iterations 608
time step continuity errors : sum local = 1.61287e-09, global = -1.36128e-11, cumulative = -1.14858e-07
smoothSolver:  Solving for omega, Initial residual = 4.07241e-05, Final residual = 8.02924e-07, No Iterations 1
bounding omega, min: -2.98078 max: 2.93746e+06 average: 22759.8
smoothSolver:  Solving for k, Initial residual = 0.00817678, Final residual = 1.05453e-06, No Iterations 2
ExecutionTime = 117.87 s  ClockTime = 117 s

Courant Number mean: 0.16702 max: 9.98481
deltaT = 0.00105318
Time = 0.0179064

PIMPLE: iteration 1
smoothSolver:  Solving for Ux, Initial residual = 0.00983865, Final residual = 8.26841e-06, No Iterations 4
smoothSolver:  Solving for Uy, Initial residual = 0.00968515, Final residual = 8.23273e-06, No Iterations 4
smoothSolver:  Solving for Uz, Initial residual = 0.00584624, Final residual = 1.83718e-06, No Iterations 2
DICPCG:  Solving for p, Initial residual = 0.000906284, Final residual = 4.11445e-05, No Iterations 603
DICPCG:  Solving for p, Initial residual = 0.000613145, Final residual = 2.25507e-05, No Iterations 5
time step continuity errors : sum local = 3.73072e-08, global = -6.09521e-10, cumulative = -1.15467e-07
DICPCG:  Solving for p, Initial residual = 0.000301336, Final residual = 1.3654e-05, No Iterations 8
DICPCG:  Solving for p, Initial residual = 0.000118378, Final residual = 5.87574e-06, No Iterations 14
time step continuity errors : sum local = 9.71632e-09, global = 1.23286e-09, cumulative = -1.14234e-07
DICPCG:  Solving for p, Initial residual = 0.000109479, Final residual = 4.81834e-06, No Iterations 5
DICPCG:  Solving for p, Initial residual = 6.05519e-05, Final residual = 9.78484e-07, No Iterations 606
time step continuity errors : sum local = 1.61812e-09, global = -8.0597e-12, cumulative = -1.14242e-07
smoothSolver:  Solving for omega, Initial residual = 3.37389e-05, Final residual = 6.32467e-07, No Iterations 1
bounding omega, min: -45.1152 max: 2.93746e+06 average: 22773.4
smoothSolver:  Solving for k, Initial residual = 0.00754066, Final residual = 9.9725e-07, No Iterations 2
ExecutionTime = 124.62 s  ClockTime = 124 s

Courant Number mean: 0.167213 max: 9.98469
deltaT = 0.00105487
Time = 0.0189613

PIMPLE: iteration 1
smoothSolver:  Solving for Ux, Initial residual = 0.00964778, Final residual = 8.03284e-06, No Iterations 4
smoothSolver:  Solving for Uy, Initial residual = 0.00951067, Final residual = 7.99649e-06, No Iterations 4
smoothSolver:  Solving for Uz, Initial residual = 0.00553789, Final residual = 1.71656e-06, No Iterations 2
DICPCG:  Solving for p, Initial residual = 0.000878208, Final residual = 4.19733e-05, No Iterations 602
DICPCG:  Solving for p, Initial residual = 0.000584075, Final residual = 2.30709e-05, No Iterations 5
time step continuity errors : sum local = 3.73177e-08, global = -4.15543e-10, cumulative = -1.14658e-07
DICPCG:  Solving for p, Initial residual = 0.000296408, Final residual = 1.20528e-05, No Iterations 9
DICPCG:  Solving for p, Initial residual = 0.000117704, Final residual = 5.57689e-06, No Iterations 13
time step continuity errors : sum local = 9.01708e-09, global = 1.1845e-09, cumulative = -1.13474e-07
DICPCG:  Solving for p, Initial residual = 0.000105357, Final residual = 4.27173e-06, No Iterations 5
DICPCG:  Solving for p, Initial residual = 5.76261e-05, Final residual = 9.81153e-07, No Iterations 576
time step continuity errors : sum local = 1.58646e-09, global = 1.44153e-11, cumulative = -1.13459e-07
smoothSolver:  Solving for omega, Initial residual = 2.90681e-05, Final residual = 5.20836e-07, No Iterations 1
bounding omega, min: -4.58714 max: 2.93746e+06 average: 22769.2
smoothSolver:  Solving for k, Initial residual = 0.00701143, Final residual = 9.74373e-07, No Iterations 2
ExecutionTime = 131 s  ClockTime = 131 s

Courant Number mean: 0.167408 max: 9.98271
deltaT = 0.00105655
Time = 0.0200179

PIMPLE: iteration 1
smoothSolver:  Solving for Ux, Initial residual = 0.00948513, Final residual = 7.81773e-06, No Iterations 4
smoothSolver:  Solving for Uy, Initial residual = 0.00937676, Final residual = 7.78232e-06, No Iterations 4
smoothSolver:  Solving for Uz, Initial residual = 0.00526049, Final residual = 1.61126e-06, No Iterations 2
DICPCG:  Solving for p, Initial residual = 0.000856881, Final residual = 3.97695e-05, No Iterations 603
DICPCG:  Solving for p, Initial residual = 0.000555274, Final residual = 2.10505e-05, No Iterations 5
time step continuity errors : sum local = 3.33378e-08, global = -4.29504e-10, cumulative = -1.13889e-07
DICPCG:  Solving for p, Initial residual = 0.000284543, Final residual = 1.24797e-05, No Iterations 8
DICPCG:  Solving for p, Initial residual = 0.000113928, Final residual = 5.47497e-06, No Iterations 11
time step continuity errors : sum local = 8.66743e-09, global = 1.23097e-09, cumulative = -1.12658e-07
DICPCG:  Solving for p, Initial residual = 0.000102671, Final residual = 4.17784e-06, No Iterations 5
DICPCG:  Solving for p, Initial residual = 5.78114e-05, Final residual = 9.77606e-07, No Iterations 605
time step continuity errors : sum local = 1.5477e-09, global = -4.34755e-12, cumulative = -1.12662e-07
smoothSolver:  Solving for omega, Initial residual = 2.51737e-05, Final residual = 4.26688e-07, No Iterations 1
bounding omega, min: -45.312 max: 2.93746e+06 average: 22776.7
smoothSolver:  Solving for k, Initial residual = 0.00656635, Final residual = 9.4087e-07, No Iterations 2
ExecutionTime = 137.43 s  ClockTime = 137 s

Courant Number mean: 0.167606 max: 9.97897
deltaT = 0.00105881
Time = 0.0210767

PIMPLE: iteration 1
smoothSolver:  Solving for Ux, Initial residual = 0.00929569, Final residual = 7.6358e-06, No Iterations 4
smoothSolver:  Solving for Uy, Initial residual = 0.00920114, Final residual = 7.60046e-06, No Iterations 4
smoothSolver:  Solving for Uz, Initial residual = 0.00501169, Final residual = 1.52176e-06, No Iterations 2
DICPCG:  Solving for p, Initial residual = 0.000830441, Final residual = 3.7314e-05, No Iterations 602
DICPCG:  Solving for p, Initial residual = 0.000533761, Final residual = 2.06158e-05, No Iterations 5
time step continuity errors : sum local = 3.20302e-08, global = -2.43539e-10, cumulative = -1.12906e-07
DICPCG:  Solving for p, Initial residual = 0.000281482, Final residual = 1.30472e-05, No Iterations 8
DICPCG:  Solving for p, Initial residual = 0.000115866, Final residual = 5.46402e-06, No Iterations 11
time step continuity errors : sum local = 8.48636e-09, global = 1.13864e-09, cumulative = -1.11767e-07
DICPCG:  Solving for p, Initial residual = 0.00010257, Final residual = 3.98174e-06, No Iterations 5
DICPCG:  Solving for p, Initial residual = 5.78091e-05, Final residual = 9.67707e-07, No Iterations 577
time step continuity errors : sum local = 1.50303e-09, global = -1.15166e-11, cumulative = -1.11778e-07
smoothSolver:  Solving for omega, Initial residual = 2.26105e-05, Final residual = 3.71604e-07, No Iterations 1
bounding omega, min: -1.23998 max: 2.93746e+06 average: 22775.7
smoothSolver:  Solving for k, Initial residual = 0.00619233, Final residual = 9.40356e-07, No Iterations 2
ExecutionTime = 143.86 s  ClockTime = 143 s

Courant Number mean: 0.167895 max: 9.97893
deltaT = 0.00106108
Time = 0.0221378

PIMPLE: iteration 1
smoothSolver:  Solving for Ux, Initial residual = 0.00915191, Final residual = 7.466e-06, No Iterations 4
smoothSolver:  Solving for Uy, Initial residual = 0.00907722, Final residual = 7.42979e-06, No Iterations 4
smoothSolver:  Solving for Uz, Initial residual = 0.00478473, Final residual = 1.44249e-06, No Iterations 2
DICPCG:  Solving for p, Initial residual = 0.000809948, Final residual = 4.0304e-05, No Iterations 602
DICPCG:  Solving for p, Initial residual = 0.000516472, Final residual = 2.07449e-05, No Iterations 5
time step continuity errors : sum local = 3.1657e-08, global = -4.83954e-10, cumulative = -1.12262e-07
DICPCG:  Solving for p, Initial residual = 0.000274515, Final residual = 1.12224e-05, No Iterations 8
DICPCG:  Solving for p, Initial residual = 0.000113059, Final residual = 5.48405e-06, No Iterations 9
time step continuity errors : sum local = 8.36597e-09, global = 1.08145e-09, cumulative = -1.11181e-07
DICPCG:  Solving for p, Initial residual = 0.000101988, Final residual = 4.4077e-06, No Iterations 5
DICPCG:  Solving for p, Initial residual = 5.80269e-05, Final residual = 9.55647e-07, No Iterations 605
time step continuity errors : sum local = 1.45789e-09, global = -2.30713e-12, cumulative = -1.11183e-07
smoothSolver:  Solving for omega, Initial residual = 2.03558e-05, Final residual = 3.16879e-07, No Iterations 1
bounding omega, min: -45.5306 max: 2.93746e+06 average: 22780.1
smoothSolver:  Solving for k, Initial residual = 0.00587187, Final residual = 9.30967e-07, No Iterations 2
ExecutionTime = 150.34 s  ClockTime = 150 s

Courant Number mean: 0.168188 max: 9.97737
deltaT = 0.00106337
Time = 0.0232011

PIMPLE: iteration 1
smoothSolver:  Solving for Ux, Initial residual = 0.00899375, Final residual = 7.308e-06, No Iterations 4
smoothSolver:  Solving for Uy, Initial residual = 0.00892327, Final residual = 7.27097e-06, No Iterations 4
smoothSolver:  Solving for Uz, Initial residual = 0.00457664, Final residual = 1.37251e-06, No Iterations 2
DICPCG:  Solving for p, Initial residual = 0.000788694, Final residual = 3.55986e-05, No Iterations 602
DICPCG:  Solving for p, Initial residual = 0.000501548, Final residual = 1.99405e-05, No Iterations 5
time step continuity errors : sum local = 2.99186e-08, global = -3.10977e-10, cumulative = -1.11494e-07
DICPCG:  Solving for p, Initial residual = 0.000272266, Final residual = 1.15108e-05, No Iterations 8
DICPCG:  Solving for p, Initial residual = 0.000114563, Final residual = 5.24732e-06, No Iterations 9
time step continuity errors : sum local = 7.8707e-09, global = 9.23684e-10, cumulative = -1.10571e-07
DICPCG:  Solving for p, Initial residual = 0.00010067, Final residual = 4.23675e-06, No Iterations 5
DICPCG:  Solving for p, Initial residual = 5.6183e-05, Final residual = 9.90046e-07, No Iterations 578
time step continuity errors : sum local = 1.48507e-09, global = 2.02267e-11, cumulative = -1.1055e-07
smoothSolver:  Solving for omega, Initial residual = 1.87431e-05, Final residual = 2.87333e-07, No Iterations 1
bounding omega, min: -2.11859 max: 2.93746e+06 average: 22780.5
smoothSolver:  Solving for k, Initial residual = 0.00559423, Final residual = 9.42761e-07, No Iterations 2
ExecutionTime = 156.73 s  ClockTime = 156 s

Courant Number mean: 0.168484 max: 9.97439
deltaT = 0.00106623
Time = 0.0242674

PIMPLE: iteration 1
smoothSolver:  Solving for Ux, Initial residual = 0.00885603, Final residual = 7.17079e-06, No Iterations 4
smoothSolver:  Solving for Uy, Initial residual = 0.00880572, Final residual = 7.13414e-06, No Iterations 4
smoothSolver:  Solving for Uz, Initial residual = 0.00439142, Final residual = 1.3135e-06, No Iterations 2
DICPCG:  Solving for p, Initial residual = 0.000784329, Final residual = 3.91602e-05, No Iterations 10
DICPCG:  Solving for p, Initial residual = 0.000283756, Final residual = 1.36008e-05, No Iterations 601
time step continuity errors : sum local = 2.052e-08, global = -1.99609e-10, cumulative = -1.1075e-07
DICPCG:  Solving for p, Initial residual = 0.000479899, Final residual = 2.26531e-05, No Iterations 3
DICPCG:  Solving for p, Initial residual = 0.000129254, Final residual = 5.13271e-06, No Iterations 11
time step continuity errors : sum local = 7.58201e-09, global = 9.25061e-10, cumulative = -1.09825e-07
DICPCG:  Solving for p, Initial residual = 0.000102293, Final residual = 4.85977e-06, No Iterations 5
DICPCG:  Solving for p, Initial residual = 5.77217e-05, Final residual = 8.74177e-07, No Iterations 607
time step continuity errors : sum local = 1.29133e-09, global = -2.78547e-13, cumulative = -1.09825e-07
smoothSolver:  Solving for omega, Initial residual = 1.72753e-05, Final residual = 2.55575e-07, No Iterations 1
bounding omega, min: -45.8197 max: 2.93746e+06 average: 22783.4
smoothSolver:  Solving for k, Initial residual = 0.00535416, Final residual = 9.24604e-07, No Iterations 2
ExecutionTime = 163.23 s  ClockTime = 163 s

Courant Number mean: 0.168874 max: 9.9754
deltaT = 0.00106912
Time = 0.0253365

PIMPLE: iteration 1
smoothSolver:  Solving for Ux, Initial residual = 0.00870341, Final residual = 7.04465e-06, No Iterations 4
smoothSolver:  Solving for Uy, Initial residual = 0.00865666, Final residual = 7.00789e-06, No Iterations 4
smoothSolver:  Solving for Uz, Initial residual = 0.00422477, Final residual = 1.26008e-06, No Iterations 2
DICPCG:  Solving for p, Initial residual = 0.00077735, Final residual = 3.83327e-05, No Iterations 10
DICPCG:  Solving for p, Initial residual = 0.000294679, Final residual = 1.31643e-05, No Iterations 600
time step continuity errors : sum local = 1.95579e-08, global = -2.46784e-12, cumulative = -1.09828e-07
DICPCG:  Solving for p, Initial residual = 0.000467624, Final residual = 2.27556e-05, No Iterations 3
DICPCG:  Solving for p, Initial residual = 0.000130408, Final residual = 6.35543e-06, No Iterations 11
time step continuity errors : sum local = 9.25417e-09, global = 9.46131e-10, cumulative = -1.08881e-07
DICPCG:  Solving for p, Initial residual = 0.000100557, Final residual = 4.89967e-06, No Iterations 5
DICPCG:  Solving for p, Initial residual = 5.34558e-05, Final residual = 9.21132e-07, No Iterations 584
time step continuity errors : sum local = 1.34127e-09, global = -1.53116e-11, cumulative = -1.08897e-07
smoothSolver:  Solving for omega, Initial residual = 1.62035e-05, Final residual = 2.37647e-07, No Iterations 1
bounding omega, min: -1.55318 max: 2.93746e+06 average: 22784.3
smoothSolver:  Solving for k, Initial residual = 0.00514263, Final residual = 9.32985e-07, No Iterations 2
ExecutionTime = 169.73 s  ClockTime = 169 s

Courant Number mean: 0.169267 max: 9.97514
deltaT = 0.00107202
Time = 0.0264085

PIMPLE: iteration 1
smoothSolver:  Solving for Ux, Initial residual = 0.00858359, Final residual = 6.91197e-06, No Iterations 4
smoothSolver:  Solving for Uy, Initial residual = 0.0085519, Final residual = 6.87662e-06, No Iterations 4
smoothSolver:  Solving for Uz, Initial residual = 0.00407454, Final residual = 1.21133e-06, No Iterations 2
DICPCG:  Solving for p, Initial residual = 0.000803182, Final residual = 3.93473e-05, No Iterations 10
DICPCG:  Solving for p, Initial residual = 0.000305954, Final residual = 1.35392e-05, No Iterations 602
time step continuity errors : sum local = 1.98259e-08, global = -2.40202e-10, cumulative = -1.09137e-07
DICPCG:  Solving for p, Initial residual = 0.000460403, Final residual = 2.20963e-05, No Iterations 3
DICPCG:  Solving for p, Initial residual = 0.000131951, Final residual = 5.33624e-06, No Iterations 11
time step continuity errors : sum local = 7.66522e-09, global = 8.35965e-10, cumulative = -1.08301e-07
DICPCG:  Solving for p, Initial residual = 0.00010132, Final residual = 4.705e-06, No Iterations 5
DICPCG:  Solving for p, Initial residual = 5.29586e-05, Final residual = 9.48046e-07, No Iterations 586
time step continuity errors : sum local = 1.36181e-09, global = 2.97371e-11, cumulative = -1.08271e-07
smoothSolver:  Solving for omega, Initial residual = 1.52078e-05, Final residual = 2.17235e-07, No Iterations 1
bounding omega, min: -46.1847 max: 2.93746e+06 average: 22786.3
smoothSolver:  Solving for k, Initial residual = 0.0049551, Final residual = 9.17372e-07, No Iterations 2
ExecutionTime = 176.13 s  ClockTime = 176 s

Courant Number mean: 0.169664 max: 9.97364
deltaT = 0.00107494
Time = 0.0274834

PIMPLE: iteration 1
smoothSolver:  Solving for Ux, Initial residual = 0.00843806, Final residual = 6.79044e-06, No Iterations 4
smoothSolver:  Solving for Uy, Initial residual = 0.00842506, Final residual = 6.75713e-06, No Iterations 4
smoothSolver:  Solving for Uz, Initial residual = 0.00393467, Final residual = 1.16653e-06, No Iterations 2
DICPCG:  Solving for p, Initial residual = 0.000814002, Final residual = 3.89717e-05, No Iterations 10
DICPCG:  Solving for p, Initial residual = 0.000318093, Final residual = 1.46043e-05, No Iterations 601
time step continuity errors : sum local = 2.1096e-08, global = -7.31665e-11, cumulative = -1.08344e-07
DICPCG:  Solving for p, Initial residual = 0.000452842, Final residual = 2.24097e-05, No Iterations 3
DICPCG:  Solving for p, Initial residual = 0.000131977, Final residual = 6.3161e-06, No Iterations 11
time step continuity errors : sum local = 8.95723e-09, global = 7.32342e-10, cumulative = -1.07612e-07
DICPCG:  Solving for p, Initial residual = 0.000100885, Final residual = 4.67629e-06, No Iterations 5
DICPCG:  Solving for p, Initial residual = 5.18639e-05, Final residual = 9.95978e-07, No Iterations 584
time step continuity errors : sum local = 1.41246e-09, global = 2.73223e-11, cumulative = -1.07585e-07
smoothSolver:  Solving for omega, Initial residual = 1.44294e-05, Final residual = 2.04877e-07, No Iterations 1
bounding omega, min: -2.09765 max: 2.93746e+06 average: 22787.2
smoothSolver:  Solving for k, Initial residual = 0.00478747, Final residual = 9.22796e-07, No Iterations 2
ExecutionTime = 182.52 s  ClockTime = 182 s

Courant Number mean: 0.170064 max: 9.98309
deltaT = 0.0010767
Time = 0.0285601

PIMPLE: iteration 1
smoothSolver:  Solving for Ux, Initial residual = 0.00828605, Final residual = 6.63619e-06, No Iterations 4
smoothSolver:  Solving for Uy, Initial residual = 0.00828885, Final residual = 6.60427e-06, No Iterations 4
smoothSolver:  Solving for Uz, Initial residual = 0.00379988, Final residual = 1.12049e-06, No Iterations 2
DICPCG:  Solving for p, Initial residual = 0.000826972, Final residual = 3.86257e-05, No Iterations 10
DICPCG:  Solving for p, Initial residual = 0.000316821, Final residual = 1.38731e-05, No Iterations 601
time step continuity errors : sum local = 1.97555e-08, global = -2.47939e-10, cumulative = -1.07833e-07
DICPCG:  Solving for p, Initial residual = 0.000441377, Final residual = 2.09299e-05, No Iterations 3
DICPCG:  Solving for p, Initial residual = 0.000130985, Final residual = 5.27436e-06, No Iterations 11
time step continuity errors : sum local = 7.37915e-09, global = 6.75809e-10, cumulative = -1.07157e-07
DICPCG:  Solving for p, Initial residual = 0.000100528, Final residual = 4.40285e-06, No Iterations 5
DICPCG:  Solving for p, Initial residual = 5.18354e-05, Final residual = 9.66698e-07, No Iterations 605
time step continuity errors : sum local = 1.35247e-09, global = -1.45025e-12, cumulative = -1.07158e-07
smoothSolver:  Solving for omega, Initial residual = 1.363e-05, Final residual = 1.87171e-07, No Iterations 1
bounding omega, min: -46.5359 max: 2.93746e+06 average: 22788.7
smoothSolver:  Solving for k, Initial residual = 0.00463277, Final residual = 9.16467e-07, No Iterations 2
ExecutionTime = 188.98 s  ClockTime = 189 s

Courant Number mean: 0.170282 max: 10.0017
deltaT = 0.0010767
Time = 0.0296368

PIMPLE: iteration 1
smoothSolver:  Solving for Ux, Initial residual = 0.00807416, Final residual = 6.44392e-06, No Iterations 4
smoothSolver:  Solving for Uy, Initial residual = 0.00807013, Final residual = 6.41468e-06, No Iterations 4
smoothSolver:  Solving for Uz, Initial residual = 0.00366779, Final residual = 1.07131e-06, No Iterations 2
DICPCG:  Solving for p, Initial residual = 0.000800192, Final residual = 3.5623e-05, No Iterations 10
DICPCG:  Solving for p, Initial residual = 0.000297977, Final residual = 1.30741e-05, No Iterations 601
time step continuity errors : sum local = 1.83312e-08, global = -5.14227e-11, cumulative = -1.0721e-07
DICPCG:  Solving for p, Initial residual = 0.000420521, Final residual = 1.98291e-05, No Iterations 3
DICPCG:  Solving for p, Initial residual = 0.000121432, Final residual = 5.62671e-06, No Iterations 11
time step continuity errors : sum local = 7.75661e-09, global = 6.81021e-10, cumulative = -1.06529e-07
DICPCG:  Solving for p, Initial residual = 9.67031e-05, Final residual = 4.48489e-06, No Iterations 5
DICPCG:  Solving for p, Initial residual = 5.12413e-05, Final residual = 9.43514e-07, No Iterations 574
time step continuity errors : sum local = 1.30068e-09, global = 1.00526e-11, cumulative = -1.06519e-07
smoothSolver:  Solving for omega, Initial residual = 1.2972e-05, Final residual = 1.75976e-07, No Iterations 1
bounding omega, min: -2.59359 max: 2.93746e+06 average: 22789.7
smoothSolver:  Solving for k, Initial residual = 0.00448646, Final residual = 9.08746e-07, No Iterations 2
ExecutionTime = 195.34 s  ClockTime = 195 s

Courant Number mean: 0.170222 max: 10.0038
deltaT = 0.00107611
Time = 0.030713

PIMPLE: iteration 1
smoothSolver:  Solving for Ux, Initial residual = 0.00775983, Final residual = 6.23838e-06, No Iterations 4
smoothSolver:  Solving for Uy, Initial residual = 0.00777231, Final residual = 6.20863e-06, No Iterations 4
smoothSolver:  Solving for Uz, Initial residual = 0.00354212, Final residual = 1.0237e-06, No Iterations 2
DICPCG:  Solving for p, Initial residual = 0.000719866, Final residual = 3.21232e-05, No Iterations 10
DICPCG:  Solving for p, Initial residual = 0.000256491, Final residual = 1.2198e-05, No Iterations 601
time step continuity errors : sum local = 1.6839e-08, global = -2.30411e-10, cumulative = -1.06749e-07
DICPCG:  Solving for p, Initial residual = 0.000390987, Final residual = 1.72905e-05, No Iterations 3
DICPCG:  Solving for p, Initial residual = 0.000105441, Final residual = 5.04293e-06, No Iterations 10
time step continuity errors : sum local = 6.84877e-09, global = 6.65892e-10, cumulative = -1.06083e-07
DICPCG:  Solving for p, Initial residual = 8.82212e-05, Final residual = 4.35142e-06, No Iterations 5
DICPCG:  Solving for p, Initial residual = 4.87843e-05, Final residual = 9.91319e-07, No Iterations 605
time step continuity errors : sum local = 1.34632e-09, global = 3.79874e-12, cumulative = -1.06079e-07
smoothSolver:  Solving for omega, Initial residual = 1.23447e-05, Final residual = 1.63906e-07, No Iterations 1
bounding omega, min: -46.6911 max: 2.93746e+06 average: 22791
smoothSolver:  Solving for k, Initial residual = 0.00435163, Final residual = 8.95974e-07, No Iterations 2
ExecutionTime = 201.9 s  ClockTime = 201 s

Courant Number mean: 0.170071 max: 10.0003
deltaT = 0.00107611
Time = 0.0317891

PIMPLE: iteration 1
smoothSolver:  Solving for Ux, Initial residual = 0.00740053, Final residual = 6.04156e-06, No Iterations 4
smoothSolver:  Solving for Uy, Initial residual = 0.00739501, Final residual = 6.01217e-06, No Iterations 4
smoothSolver:  Solving for Uz, Initial residual = 0.00342579, Final residual = 9.81443e-07, No Iterations 2
DICPCG:  Solving for p, Initial residual = 0.000629693, Final residual = 2.78118e-05, No Iterations 10
DICPCG:  Solving for p, Initial residual = 0.000208494, Final residual = 9.43781e-06, No Iterations 599
time step continuity errors : sum local = 1.28432e-08, global = -2.99969e-11, cumulative = -1.06109e-07
DICPCG:  Solving for p, Initial residual = 0.000366079, Final residual = 1.49504e-05, No Iterations 3
DICPCG:  Solving for p, Initial residual = 8.81e-05, Final residual = 3.51446e-06, No Iterations 11
time step continuity errors : sum local = 4.70757e-09, global = 6.05955e-10, cumulative = -1.05503e-07
DICPCG:  Solving for p, Initial residual = 7.43981e-05, Final residual = 3.70012e-06, No Iterations 4
DICPCG:  Solving for p, Initial residual = 4.14781e-05, Final residual = 9.89455e-07, No Iterations 581
time step continuity errors : sum local = 1.32535e-09, global = 1.12427e-11, cumulative = -1.05492e-07
smoothSolver:  Solving for omega, Initial residual = 1.18323e-05, Final residual = 1.55684e-07, No Iterations 1
bounding omega, min: -3.00589 max: 2.93746e+06 average: 22791.9
smoothSolver:  Solving for k, Initial residual = 0.00423048, Final residual = 8.84258e-07, No Iterations 2
ExecutionTime = 208.35 s  ClockTime = 208 s

Courant Number mean: 0.170013 max: 10.0021
deltaT = 0.00107611
Time = 0.0328652

PIMPLE: iteration 1
smoothSolver:  Solving for Ux, Initial residual = 0.00706558, Final residual = 5.84149e-06, No Iterations 4
smoothSolver:  Solving for Uy, Initial residual = 0.00706833, Final residual = 5.81347e-06, No Iterations 4
smoothSolver:  Solving for Uz, Initial residual = 0.0033161, Final residual = 9.42132e-07, No Iterations 2
DICPCG:  Solving for p, Initial residual = 0.000565948, Final residual = 2.4546e-05, No Iterations 10
DICPCG:  Solving for p, Initial residual = 0.000172645, Final residual = 7.65836e-06, No Iterations 603
time step continuity errors : sum local = 1.02785e-08, global = -1.75959e-11, cumulative = -1.0551e-07
DICPCG:  Solving for p, Initial residual = 0.000343404, Final residual = 1.33249e-05, No Iterations 3
DICPCG:  Solving for p, Initial residual = 7.42341e-05, Final residual = 3.4083e-06, No Iterations 10
time step continuity errors : sum local = 4.50518e-09, global = 6.30302e-10, cumulative = -1.0488e-07
DICPCG:  Solving for p, Initial residual = 6.08349e-05, Final residual = 2.98676e-06, No Iterations 4
DICPCG:  Solving for p, Initial residual = 3.19547e-05, Final residual = 9.16069e-07, No Iterations 607
time step continuity errors : sum local = 1.21086e-09, global = 9.37087e-12, cumulative = -1.0487e-07
smoothSolver:  Solving for omega, Initial residual = 1.13336e-05, Final residual = 1.46385e-07, No Iterations 1
bounding omega, min: -46.8033 max: 2.93746e+06 average: 22792.9
smoothSolver:  Solving for k, Initial residual = 0.00411982, Final residual = 8.75805e-07, No Iterations 2
ExecutionTime = 214.98 s  ClockTime = 215 s

Courant Number mean: 0.169957 max: 10.0038
deltaT = 0.00107552
Time = 0.0339407

PIMPLE: iteration 1
smoothSolver:  Solving for Ux, Initial residual = 0.00680685, Final residual = 5.63536e-06, No Iterations 4
smoothSolver:  Solving for Uy, Initial residual = 0.00682898, Final residual = 5.60922e-06, No Iterations 4
smoothSolver:  Solving for Uz, Initial residual = 0.00321078, Final residual = 9.03821e-07, No Iterations 2
DICPCG:  Solving for p, Initial residual = 0.000516635, Final residual = 2.58294e-05, No Iterations 9
DICPCG:  Solving for p, Initial residual = 0.000155594, Final residual = 7.42819e-06, No Iterations 604
time step continuity errors : sum local = 9.83151e-09, global = -1.99642e-10, cumulative = -1.0507e-07
DICPCG:  Solving for p, Initial residual = 0.000328664, Final residual = 1.24229e-05, No Iterations 3
DICPCG:  Solving for p, Initial residual = 6.98337e-05, Final residual = 3.16392e-06, No Iterations 8
time step continuity errors : sum local = 4.1264e-09, global = 7.60543e-10, cumulative = -1.04309e-07
DICPCG:  Solving for p, Initial residual = 5.51899e-05, Final residual = 2.66616e-06, No Iterations 7
DICPCG:  Solving for p, Initial residual = 2.83231e-05, Final residual = 9.47589e-07, No Iterations 581
time step continuity errors : sum local = 1.23584e-09, global = 1.46172e-11, cumulative = -1.04295e-07
smoothSolver:  Solving for omega, Initial residual = 1.09e-05, Final residual = 1.37912e-07, No Iterations 1
bounding omega, min: -3.39561 max: 2.93746e+06 average: 22793.7
smoothSolver:  Solving for k, Initial residual = 0.00401618, Final residual = 8.53053e-07, No Iterations 2
ExecutionTime = 222.42 s  ClockTime = 222 s

Courant Number mean: 0.169808 max: 9.99998
deltaT = 0.00107552
Time = 0.0350162

PIMPLE: iteration 1
smoothSolver:  Solving for Ux, Initial residual = 0.0066292, Final residual = 5.43528e-06, No Iterations 4
smoothSolver:  Solving for Uy, Initial residual = 0.0066652, Final residual = 5.41004e-06, No Iterations 4
smoothSolver:  Solving for Uz, Initial residual = 0.00311498, Final residual = 8.70077e-07, No Iterations 2
DICPCG:  Solving for p, Initial residual = 0.000502025, Final residual = 2.18046e-05, No Iterations 10
DICPCG:  Solving for p, Initial residual = 0.000147452, Final residual = 6.34141e-06, No Iterations 604
time step continuity errors : sum local = 8.28613e-09, global = -8.42068e-11, cumulative = -1.04379e-07
DICPCG:  Solving for p, Initial residual = 0.000315683, Final residual = 1.20838e-05, No Iterations 3
DICPCG:  Solving for p, Initial residual = 6.63861e-05, Final residual = 3.24489e-06, No Iterations 9
time step continuity errors : sum local = 4.18024e-09, global = 6.77247e-10, cumulative = -1.03702e-07
DICPCG:  Solving for p, Initial residual = 5.27927e-05, Final residual = 2.58791e-06, No Iterations 7
DICPCG:  Solving for p, Initial residual = 2.61669e-05, Final residual = 9.77114e-07, No Iterations 605
time step continuity errors : sum local = 1.25875e-09, global = 1.0076e-11, cumulative = -1.03692e-07
smoothSolver:  Solving for omega, Initial residual = 1.04724e-05, Final residual = 1.30491e-07, No Iterations 1
bounding omega, min: -46.8336 max: 2.93746e+06 average: 22794.6
smoothSolver:  Solving for k, Initial residual = 0.00392273, Final residual = 8.45668e-07, No Iterations 2
ExecutionTime = 228.81 s  ClockTime = 228 s

Courant Number mean: 0.169753 max: 10.0015
deltaT = 0.00107552
Time = 0.0360918

PIMPLE: iteration 1
smoothSolver:  Solving for Ux, Initial residual = 0.00646332, Final residual = 5.24135e-06, No Iterations 4
smoothSolver:  Solving for Uy, Initial residual = 0.00650315, Final residual = 5.2163e-06, No Iterations 4
smoothSolver:  Solving for Uz, Initial residual = 0.0030255, Final residual = 8.3857e-07, No Iterations 2
DICPCG:  Solving for p, Initial residual = 0.000483027, Final residual = 2.39366e-05, No Iterations 9
DICPCG:  Solving for p, Initial residual = 0.00014143, Final residual = 5.89163e-06, No Iterations 605
time step continuity errors : sum local = 7.60389e-09, global = -1.46041e-10, cumulative = -1.03838e-07
DICPCG:  Solving for p, Initial residual = 0.000306933, Final residual = 1.16896e-05, No Iterations 3
DICPCG:  Solving for p, Initial residual = 6.52619e-05, Final residual = 3.00799e-06, No Iterations 8
time step continuity errors : sum local = 3.82919e-09, global = 7.41221e-10, cumulative = -1.03096e-07
DICPCG:  Solving for p, Initial residual = 5.13337e-05, Final residual = 2.51798e-06, No Iterations 7
DICPCG:  Solving for p, Initial residual = 2.56059e-05, Final residual = 9.43718e-07, No Iterations 578
time step continuity errors : sum local = 1.20134e-09, global = 8.22529e-12, cumulative = -1.03088e-07
smoothSolver:  Solving for omega, Initial residual = 1.01085e-05, Final residual = 1.24998e-07, No Iterations 1
bounding omega, min: -3.80545 max: 2.93746e+06 average: 22795.4
smoothSolver:  Solving for k, Initial residual = 0.00383622, Final residual = 8.19464e-07, No Iterations 2
ExecutionTime = 235.32 s  ClockTime = 235 s

Courant Number mean: 0.1697 max: 10.0029
deltaT = 0.00107494
Time = 0.0371667

PIMPLE: iteration 1
smoothSolver:  Solving for Ux, Initial residual = 0.00629948, Final residual = 5.04739e-06, No Iterations 4
smoothSolver:  Solving for Uy, Initial residual = 0.00635505, Final residual = 5.02374e-06, No Iterations 4
smoothSolver:  Solving for Uz, Initial residual = 0.00293862, Final residual = 8.07341e-07, No Iterations 2
DICPCG:  Solving for p, Initial residual = 0.000454318, Final residual = 2.18253e-05, No Iterations 10
DICPCG:  Solving for p, Initial residual = 0.000133687, Final residual = 5.93159e-06, No Iterations 605
time step continuity errors : sum local = 7.55983e-09, global = -1.28889e-10, cumulative = -1.03217e-07
DICPCG:  Solving for p, Initial residual = 0.000295794, Final residual = 1.14533e-05, No Iterations 3
DICPCG:  Solving for p, Initial residual = 6.1704e-05, Final residual = 3.06713e-06, No Iterations 8
time step continuity errors : sum local = 3.85743e-09, global = 7.26884e-10, cumulative = -1.0249e-07
DICPCG:  Solving for p, Initial residual = 4.86079e-05, Final residual = 2.10523e-06, No Iterations 8
DICPCG:  Solving for p, Initial residual = 2.35939e-05, Final residual = 9.26951e-07, No Iterations 577
time step continuity errors : sum local = 1.16578e-09, global = 8.56482e-12, cumulative = -1.02482e-07
smoothSolver:  Solving for omega, Initial residual = 9.74941e-06, Final residual = 9.74941e-06, No Iterations 0
smoothSolver:  Solving for k, Initial residual = 0.00371731, Final residual = 7.98999e-07, No Iterations 2
ExecutionTime = 243.7 s  ClockTime = 243 s

Courant Number mean: 0.169554 max: 9.99883
deltaT = 0.00107494
Time = 0.0382416

PIMPLE: iteration 1
smoothSolver:  Solving for Ux, Initial residual = 0.00615884, Final residual = 4.87409e-06, No Iterations 4
smoothSolver:  Solving for Uy, Initial residual = 0.00620794, Final residual = 4.85021e-06, No Iterations 4
smoothSolver:  Solving for Uz, Initial residual = 0.00285593, Final residual = 7.79289e-07, No Iterations 2
DICPCG:  Solving for p, Initial residual = 0.000436801, Final residual = 2.06784e-05, No Iterations 10
DICPCG:  Solving for p, Initial residual = 0.000131149, Final residual = 5.45322e-06, No Iterations 605
time step continuity errors : sum local = 6.87103e-09, global = -1.07749e-10, cumulative = -1.02589e-07
DICPCG:  Solving for p, Initial residual = 0.000287066, Final residual = 1.1123e-05, No Iterations 3
DICPCG:  Solving for p, Initial residual = 5.9414e-05, Final residual = 2.63037e-06, No Iterations 9
time step continuity errors : sum local = 3.27182e-09, global = 6.03904e-10, cumulative = -1.01985e-07
DICPCG:  Solving for p, Initial residual = 4.6715e-05, Final residual = 2.33e-06, No Iterations 4
DICPCG:  Solving for p, Initial residual = 2.24352e-05, Final residual = 9.53486e-07, No Iterations 578
time step continuity errors : sum local = 1.18599e-09, global = 2.42649e-12, cumulative = -1.01983e-07
smoothSolver:  Solving for omega, Initial residual = 1.06805e-05, Final residual = 1.32775e-07, No Iterations 1
bounding omega, min: -46.871 max: 2.93746e+06 average: 22795.9
smoothSolver:  Solving for k, Initial residual = 0.00363452, Final residual = 7.7235e-07, No Iterations 2
ExecutionTime = 250.13 s  ClockTime = 250 s

Courant Number mean: 0.169502 max: 10.0001
deltaT = 0.00107494
Time = 0.0393166

PIMPLE: iteration 1
smoothSolver:  Solving for Ux, Initial residual = 0.00601951, Final residual = 4.71523e-06, No Iterations 4
smoothSolver:  Solving for Uy, Initial residual = 0.00607859, Final residual = 4.68994e-06, No Iterations 4
smoothSolver:  Solving for Uz, Initial residual = 0.00277914, Final residual = 7.53095e-07, No Iterations 2
DICPCG:  Solving for p, Initial residual = 0.000446967, Final residual = 2.10668e-05, No Iterations 10
DICPCG:  Solving for p, Initial residual = 0.000134107, Final residual = 5.54189e-06, No Iterations 605
time step continuity errors : sum local = 6.90643e-09, global = -1.27732e-10, cumulative = -1.02111e-07
DICPCG:  Solving for p, Initial residual = 0.000278295, Final residual = 1.0929e-05, No Iterations 3
DICPCG:  Solving for p, Initial residual = 5.82209e-05, Final residual = 2.77599e-06, No Iterations 8
time step continuity errors : sum local = 3.41654e-09, global = 6.73638e-10, cumulative = -1.01437e-07
DICPCG:  Solving for p, Initial residual = 4.67512e-05, Final residual = 2.33443e-06, No Iterations 7
DICPCG:  Solving for p, Initial residual = 2.30121e-05, Final residual = 9.08611e-07, No Iterations 577
time step continuity errors : sum local = 1.11826e-09, global = 3.85339e-12, cumulative = -1.01433e-07
smoothSolver:  Solving for omega, Initial residual = 9.58231e-06, Final residual = 9.58231e-06, No Iterations 0
smoothSolver:  Solving for k, Initial residual = 0.00353159, Final residual = 7.56556e-07, No Iterations 2
ExecutionTime = 256.4 s  ClockTime = 256 s

Courant Number mean: 0.16945 max: 10.0013
deltaT = 0.00107494
Time = 0.0403915

PIMPLE: iteration 1
smoothSolver:  Solving for Ux, Initial residual = 0.00593179, Final residual = 4.57398e-06, No Iterations 4
smoothSolver:  Solving for Uy, Initial residual = 0.00597749, Final residual = 4.54984e-06, No Iterations 4
smoothSolver:  Solving for Uz, Initial residual = 0.00270602, Final residual = 7.28586e-07, No Iterations 2
DICPCG:  Solving for p, Initial residual = 0.000456926, Final residual = 2.12225e-05, No Iterations 10
DICPCG:  Solving for p, Initial residual = 0.000135124, Final residual = 6.58508e-06, No Iterations 604
time step continuity errors : sum local = 8.11985e-09, global = -1.41252e-10, cumulative = -1.01574e-07
DICPCG:  Solving for p, Initial residual = 0.000271228, Final residual = 1.09708e-05, No Iterations 3
DICPCG:  Solving for p, Initial residual = 5.57979e-05, Final residual = 2.48416e-06, No Iterations 9
time step continuity errors : sum local = 3.02627e-09, global = 5.4343e-10, cumulative = -1.01031e-07
DICPCG:  Solving for p, Initial residual = 4.47402e-05, Final residual = 2.20687e-06, No Iterations 4
DICPCG:  Solving for p, Initial residual = 2.16738e-05, Final residual = 9.8438e-07, No Iterations 577
time step continuity errors : sum local = 1.19919e-09, global = 4.83977e-12, cumulative = -1.01026e-07
smoothSolver:  Solving for omega, Initial residual = 1.04113e-05, Final residual = 1.25353e-07, No Iterations 1
bounding omega, min: -4.18472 max: 2.93746e+06 average: 22796.5
smoothSolver:  Solving for k, Initial residual = 0.0034598, Final residual = 7.33112e-07, No Iterations 2
ExecutionTime = 262.84 s  ClockTime = 262 s

Courant Number mean: 0.1694 max: 10.0024
deltaT = 0.00107494
Time = 0.0414664

PIMPLE: iteration 1
smoothSolver:  Solving for Ux, Initial residual = 0.00577571, Final residual = 4.45324e-06, No Iterations 4
smoothSolver:  Solving for Uy, Initial residual = 0.00583948, Final residual = 4.42988e-06, No Iterations 4
smoothSolver:  Solving for Uz, Initial residual = 0.00264078, Final residual = 7.06215e-07, No Iterations 2
DICPCG:  Solving for p, Initial residual = 0.000450505, Final residual = 2.189e-05, No Iterations 10
DICPCG:  Solving for p, Initial residual = 0.000125071, Final residual = 5.94995e-06, No Iterations 605
time step continuity errors : sum local = 7.26116e-09, global = -1.27588e-10, cumulative = -1.01154e-07
DICPCG:  Solving for p, Initial residual = 0.000260475, Final residual = 1.05816e-05, No Iterations 3
DICPCG:  Solving for p, Initial residual = 5.26193e-05, Final residual = 2.32295e-06, No Iterations 9
time step continuity errors : sum local = 2.80159e-09, global = 5.15284e-10, cumulative = -1.00638e-07
DICPCG:  Solving for p, Initial residual = 4.058e-05, Final residual = 1.97995e-06, No Iterations 7
DICPCG:  Solving for p, Initial residual = 1.89671e-05, Final residual = 9.60968e-07, No Iterations 575
time step continuity errors : sum local = 1.15896e-09, global = 1.92804e-12, cumulative = -1.00637e-07
smoothSolver:  Solving for omega, Initial residual = 9.4252e-06, Final residual = 9.4252e-06, No Iterations 0
smoothSolver:  Solving for k, Initial residual = 0.00336864, Final residual = 7.19845e-07, No Iterations 2
ExecutionTime = 269.13 s  ClockTime = 269 s

Courant Number mean: 0.16935 max: 10.0035
deltaT = 0.00107435
Time = 0.0425408

PIMPLE: iteration 1
smoothSolver:  Solving for Ux, Initial residual = 0.00565742, Final residual = 4.34743e-06, No Iterations 4
smoothSolver:  Solving for Uy, Initial residual = 0.00570718, Final residual = 4.32566e-06, No Iterations 4
smoothSolver:  Solving for Uz, Initial residual = 0.00257794, Final residual = 6.83678e-07, No Iterations 2
DICPCG:  Solving for p, Initial residual = 0.000462814, Final residual = 2.24559e-05, No Iterations 10
DICPCG:  Solving for p, Initial residual = 0.00012139, Final residual = 5.23004e-06, No Iterations 605
time step continuity errors : sum local = 6.31354e-09, global = -1.02707e-10, cumulative = -1.00739e-07
DICPCG:  Solving for p, Initial residual = 0.00025298, Final residual = 1.02904e-05, No Iterations 3
DICPCG:  Solving for p, Initial residual = 5.16897e-05, Final residual = 2.42409e-06, No Iterations 9
time step continuity errors : sum local = 2.89284e-09, global = 5.06966e-10, cumulative = -1.00232e-07
DICPCG:  Solving for p, Initial residual = 3.9801e-05, Final residual = 1.75218e-06, No Iterations 8
DICPCG:  Solving for p, Initial residual = 1.87939e-05, Final residual = 9.45609e-07, No Iterations 574
time step continuity errors : sum local = 1.12845e-09, global = 4.39377e-12, cumulative = -1.00228e-07
smoothSolver:  Solving for omega, Initial residual = 1.01942e-05, Final residual = 1.23438e-07, No Iterations 1
bounding omega, min: -46.9378 max: 2.93746e+06 average: 22797.1
smoothSolver:  Solving for k, Initial residual = 0.0033041, Final residual = 6.97103e-07, No Iterations 2
ExecutionTime = 275.63 s  ClockTime = 275 s

Courant Number mean: 0.169207 max: 9.99903
deltaT = 0.00107435
Time = 0.0436151

PIMPLE: iteration 1
smoothSolver:  Solving for Ux, Initial residual = 0.0055477, Final residual = 4.26317e-06, No Iterations 4
smoothSolver:  Solving for Uy, Initial residual = 0.00559297, Final residual = 4.2405e-06, No Iterations 4
smoothSolver:  Solving for Uz, Initial residual = 0.00251997, Final residual = 6.63876e-07, No Iterations 2
DICPCG:  Solving for p, Initial residual = 0.000427063, Final residual = 2.0667e-05, No Iterations 10
DICPCG:  Solving for p, Initial residual = 0.000112549, Final residual = 5.43513e-06, No Iterations 605
time step continuity errors : sum local = 6.49631e-09, global = -1.13766e-10, cumulative = -1.00342e-07
DICPCG:  Solving for p, Initial residual = 0.000245118, Final residual = 1.04149e-05, No Iterations 3
DICPCG:  Solving for p, Initial residual = 4.99502e-05, Final residual = 2.25864e-06, No Iterations 9
time step continuity errors : sum local = 2.66958e-09, global = 4.92853e-10, cumulative = -9.98488e-08
DICPCG:  Solving for p, Initial residual = 3.84274e-05, Final residual = 1.80218e-06, No Iterations 8
DICPCG:  Solving for p, Initial residual = 1.81512e-05, Final residual = 9.84192e-07, No Iterations 573
time step continuity errors : sum local = 1.16324e-09, global = 3.9372e-12, cumulative = -9.98449e-08
smoothSolver:  Solving for omega, Initial residual = 9.23493e-06, Final residual = 9.23493e-06, No Iterations 0
smoothSolver:  Solving for k, Initial residual = 0.00322267, Final residual = 6.85395e-07, No Iterations 2
ExecutionTime = 282.03 s  ClockTime = 282 s

Courant Number mean: 0.169159 max: 9.99998
deltaT = 0.00107435
Time = 0.0446895

PIMPLE: iteration 1
smoothSolver:  Solving for Ux, Initial residual = 0.00543592, Final residual = 4.20053e-06, No Iterations 4
smoothSolver:  Solving for Uy, Initial residual = 0.00549807, Final residual = 4.17803e-06, No Iterations 4
smoothSolver:  Solving for Uz, Initial residual = 0.00246368, Final residual = 6.44853e-07, No Iterations 2
DICPCG:  Solving for p, Initial residual = 0.000393925, Final residual = 1.95151e-05, No Iterations 10
DICPCG:  Solving for p, Initial residual = 0.000107475, Final residual = 5.34717e-06, No Iterations 605
time step continuity errors : sum local = 6.32991e-09, global = -1.15794e-10, cumulative = -9.99607e-08
DICPCG:  Solving for p, Initial residual = 0.000237145, Final residual = 9.96525e-06, No Iterations 3
DICPCG:  Solving for p, Initial residual = 4.84044e-05, Final residual = 2.19654e-06, No Iterations 9
time step continuity errors : sum local = 2.57206e-09, global = 4.73284e-10, cumulative = -9.94874e-08
DICPCG:  Solving for p, Initial residual = 3.6793e-05, Final residual = 1.72513e-06, No Iterations 8
DICPCG:  Solving for p, Initial residual = 1.72683e-05, Final residual = 9.77784e-07, No Iterations 573
time step continuity errors : sum local = 1.14494e-09, global = 8.78783e-12, cumulative = -9.94786e-08
smoothSolver:  Solving for omega, Initial residual = 9.95375e-06, Final residual = 9.95375e-06, No Iterations 0
smoothSolver:  Solving for k, Initial residual = 0.00313319, Final residual = 6.59204e-07, No Iterations 2
ExecutionTime = 288.7 s  ClockTime = 288 s

Courant Number mean: 0.16911 max: 10.0009
deltaT = 0.00107435
Time = 0.0457638

PIMPLE: iteration 1
smoothSolver:  Solving for Ux, Initial residual = 0.00534261, Final residual = 4.15577e-06, No Iterations 4
smoothSolver:  Solving for Uy, Initial residual = 0.00540461, Final residual = 4.13319e-06, No Iterations 4
smoothSolver:  Solving for Uz, Initial residual = 0.0024097, Final residual = 6.2689e-07, No Iterations 2
DICPCG:  Solving for p, Initial residual = 0.000383813, Final residual = 1.73569e-05, No Iterations 606
DICPCG:  Solving for p, Initial residual = 0.00022975, Final residual = 1.05502e-05, No Iterations 4
time step continuity errors : sum local = 1.22438e-08, global = -4.54389e-11, cumulative = -9.9524e-08
DICPCG:  Solving for p, Initial residual = 0.000119593, Final residual = 5.64873e-06, No Iterations 7
DICPCG:  Solving for p, Initial residual = 3.45199e-05, Final residual = 1.54137e-06, No Iterations 9
time step continuity errors : sum local = 1.78854e-09, global = 3.17285e-10, cumulative = -9.92068e-08
DICPCG:  Solving for p, Initial residual = 3.4058e-05, Final residual = 1.38196e-06, No Iterations 4
DICPCG:  Solving for p, Initial residual = 1.56774e-05, Final residual = 9.54453e-07, No Iterations 569
time step continuity errors : sum local = 1.10751e-09, global = 3.22412e-11, cumulative = -9.91745e-08
smoothSolver:  Solving for omega, Initial residual = 1.06513e-05, Final residual = 1.28209e-07, No Iterations 1
bounding omega, min: -4.53451 max: 2.93746e+06 average: 22797.6
smoothSolver:  Solving for k, Initial residual = 0.00308142, Final residual = 6.55941e-07, No Iterations 2
ExecutionTime = 295.27 s  ClockTime = 295 s

Courant Number mean: 0.169063 max: 10.0017
deltaT = 0.00107435
Time = 0.0468382

PIMPLE: iteration 1
smoothSolver:  Solving for Ux, Initial residual = 0.00525001, Final residual = 4.12678e-06, No Iterations 4
smoothSolver:  Solving for Uy, Initial residual = 0.00531141, Final residual = 4.10591e-06, No Iterations 4
smoothSolver:  Solving for Uz, Initial residual = 0.0023587, Final residual = 6.10302e-07, No Iterations 2
DICPCG:  Solving for p, Initial residual = 0.000394561, Final residual = 1.96017e-05, No Iterations 605
DICPCG:  Solving for p, Initial residual = 0.000227128, Final residual = 1.11887e-05, No Iterations 4
time step continuity errors : sum local = 1.287e-08, global = -1.26485e-10, cumulative = -9.9301e-08
DICPCG:  Solving for p, Initial residual = 0.000118585, Final residual = 4.69748e-06, No Iterations 8
DICPCG:  Solving for p, Initial residual = 3.52367e-05, Final residual = 1.57969e-06, No Iterations 8
time step continuity errors : sum local = 1.8168e-09, global = 2.39858e-10, cumulative = -9.90611e-08
DICPCG:  Solving for p, Initial residual = 3.43024e-05, Final residual = 1.56916e-06, No Iterations 4
DICPCG:  Solving for p, Initial residual = 1.63205e-05, Final residual = 9.98719e-07, No Iterations 8
time step continuity errors : sum local = 1.14863e-09, global = 2.65179e-10, cumulative = -9.8796e-08
smoothSolver:  Solving for omega, Initial residual = 9.20154e-06, Final residual = 9.20154e-06, No Iterations 0
smoothSolver:  Solving for k, Initial residual = 0.00301232, Final residual = 6.32236e-07, No Iterations 2
ExecutionTime = 299.33 s  ClockTime = 299 s

Courant Number mean: 0.169016 max: 10.0025
deltaT = 0.00107435
Time = 0.0479125

PIMPLE: iteration 1
smoothSolver:  Solving for Ux, Initial residual = 0.00519343, Final residual = 4.1162e-06, No Iterations 4
smoothSolver:  Solving for Uy, Initial residual = 0.00524704, Final residual = 4.09507e-06, No Iterations 4
smoothSolver:  Solving for Uz, Initial residual = 0.00230854, Final residual = 5.94419e-07, No Iterations 2
DICPCG:  Solving for p, Initial residual = 0.00038188, Final residual = 1.78007e-05, No Iterations 9
DICPCG:  Solving for p, Initial residual = 0.000110882, Final residual = 5.22419e-06, No Iterations 606
time step continuity errors : sum local = 6.01441e-09, global = -1.11329e-10, cumulative = -9.89073e-08
DICPCG:  Solving for p, Initial residual = 0.000210677, Final residual = 9.21919e-06, No Iterations 3
DICPCG:  Solving for p, Initial residual = 4.61738e-05, Final residual = 2.3073e-06, No Iterations 8
time step continuity errors : sum local = 2.632e-09, global = 3.79168e-10, cumulative = -9.85281e-08
DICPCG:  Solving for p, Initial residual = 3.72563e-05, Final residual = 1.59202e-06, No Iterations 8
DICPCG:  Solving for p, Initial residual = 1.8336e-05, Final residual = 9.81261e-07, No Iterations 17
time step continuity errors : sum local = 1.11934e-09, global = 1.53049e-10, cumulative = -9.83751e-08
smoothSolver:  Solving for omega, Initial residual = 9.82314e-06, Final residual = 9.82314e-06, No Iterations 0
smoothSolver:  Solving for k, Initial residual = 0.00293305, Final residual = 6.24151e-07, No Iterations 2
ExecutionTime = 303.45 s  ClockTime = 303 s

Courant Number mean: 0.168969 max: 10.0032
deltaT = 0.00107376
Time = 0.0489863

PIMPLE: iteration 1
smoothSolver:  Solving for Ux, Initial residual = 0.00512741, Final residual = 4.11662e-06, No Iterations 4
smoothSolver:  Solving for Uy, Initial residual = 0.00518081, Final residual = 4.0955e-06, No Iterations 4
smoothSolver:  Solving for Uz, Initial residual = 0.00225981, Final residual = 5.78465e-07, No Iterations 2
DICPCG:  Solving for p, Initial residual = 0.000377401, Final residual = 1.74273e-05, No Iterations 606
DICPCG:  Solving for p, Initial residual = 0.000223826, Final residual = 8.1493e-06, No Iterations 5
time step continuity errors : sum local = 9.21233e-09, global = -1.18271e-10, cumulative = -9.84933e-08
DICPCG:  Solving for p, Initial residual = 0.000120264, Final residual = 4.46623e-06, No Iterations 8
DICPCG:  Solving for p, Initial residual = 4.04682e-05, Final residual = 1.94112e-06, No Iterations 8
time step continuity errors : sum local = 2.19407e-09, global = 2.68541e-10, cumulative = -9.82248e-08
DICPCG:  Solving for p, Initial residual = 3.81234e-05, Final residual = 1.86508e-06, No Iterations 5
DICPCG:  Solving for p, Initial residual = 1.99475e-05, Final residual = 9.64298e-07, No Iterations 588
time step continuity errors : sum local = 1.08997e-09, global = 6.09774e-12, cumulative = -9.82187e-08
smoothSolver:  Solving for omega, Initial residual = 1.0462e-05, Final residual = 1.24224e-07, No Iterations 1
bounding omega, min: -47.1593 max: 2.93746e+06 average: 22798.1
smoothSolver:  Solving for k, Initial residual = 0.00288802, Final residual = 6.08991e-07, No Iterations 2
ExecutionTime = 310.2 s  ClockTime = 310 s

Courant Number mean: 0.16883 max: 9.99842
deltaT = 0.00107376
Time = 0.05006

PIMPLE: iteration 1
smoothSolver:  Solving for Ux, Initial residual = 0.00507768, Final residual = 4.13225e-06, No Iterations 4
smoothSolver:  Solving for Uy, Initial residual = 0.00513041, Final residual = 4.11209e-06, No Iterations 4
smoothSolver:  Solving for Uz, Initial residual = 0.00221483, Final residual = 5.64939e-07, No Iterations 2
DICPCG:  Solving for p, Initial residual = 0.000402303, Final residual = 2.00192e-05, No Iterations 605
DICPCG:  Solving for p, Initial residual = 0.000238408, Final residual = 9.58469e-06, No Iterations 5
time step continuity errors : sum local = 1.07417e-08, global = -1.99241e-10, cumulative = -9.84179e-08
DICPCG:  Solving for p, Initial residual = 0.000128114, Final residual = 5.52759e-06, No Iterations 8
DICPCG:  Solving for p, Initial residual = 4.73829e-05, Final residual = 2.35274e-06, No Iterations 10
time step continuity errors : sum local = 2.63645e-09, global = 1.62852e-10, cumulative = -9.82551e-08
DICPCG:  Solving for p, Initial residual = 4.25855e-05, Final residual = 1.9828e-06, No Iterations 4
[...]
DICPCG:  Solving for p, Initial residual = 7.58977e-06, Final residual = 8.7067e-07, No Iterations 2
DICPCG:  Solving for p, Initial residual = 2.48401e-06, Final residual = 7.44711e-07, No Iterations 1
time step continuity errors : sum local = 4.08199e-10, global = 2.51085e-11, cumulative = -7.7882e-08
smoothSolver:  Solving for omega, Initial residual = 8.17057e-06, Final residual = 8.17057e-06, No Iterations 0
smoothSolver:  Solving for k, Initial residual = 0.000784181, Final residual = 7.16042e-06, No Iterations 1
ExecutionTime = 2887.76 s  ClockTime = 2887 s

Courant Number mean: 0.156613 max: 10.0143
deltaT = 0.0010689
Time = 0.988242

PIMPLE: iteration 1
smoothSolver:  Solving for Ux, Initial residual = 0.000714759, Final residual = 6.5241e-06, No Iterations 1
smoothSolver:  Solving for Uy, Initial residual = 0.000718026, Final residual = 6.57626e-06, No Iterations 1
smoothSolver:  Solving for Uz, Initial residual = 2.36858e-05, Final residual = 1.51679e-07, No Iterations 1
DICPCG:  Solving for p, Initial residual = 8.68058e-05, Final residual = 4.28299e-06, No Iterations 5
DICPCG:  Solving for p, Initial residual = 1.92321e-05, Final residual = 9.64597e-07, No Iterations 194
time step continuity errors : sum local = 5.2868e-10, global = -5.1178e-11, cumulative = -7.79332e-08
DICPCG:  Solving for p, Initial residual = 3.00249e-05, Final residual = 1.13029e-06, No Iterations 5
DICPCG:  Solving for p, Initial residual = 5.67621e-06, Final residual = 9.05934e-07, No Iterations 2
time step continuity errors : sum local = 4.96522e-10, global = 3.37175e-11, cumulative = -7.78995e-08
DICPCG:  Solving for p, Initial residual = 7.55991e-06, Final residual = 8.9638e-07, No Iterations 2
DICPCG:  Solving for p, Initial residual = 2.46513e-06, Final residual = 7.58902e-07, No Iterations 1
time step continuity errors : sum local = 4.15937e-10, global = 5.32802e-11, cumulative = -7.78462e-08
smoothSolver:  Solving for omega, Initial residual = 8.68642e-06, Final residual = 8.68642e-06, No Iterations 0
smoothSolver:  Solving for k, Initial residual = 0.00078415, Final residual = 7.15756e-06, No Iterations 1
ExecutionTime = 2889.52 s  ClockTime = 2889 s

Courant Number mean: 0.156612 max: 10.0143
deltaT = 0.0010689
Time = 0.989311

PIMPLE: iteration 1
smoothSolver:  Solving for Ux, Initial residual = 0.000716052, Final residual = 6.54822e-06, No Iterations 1
smoothSolver:  Solving for Uy, Initial residual = 0.000719623, Final residual = 6.60091e-06, No Iterations 1
smoothSolver:  Solving for Uz, Initial residual = 2.35098e-05, Final residual = 1.50571e-07, No Iterations 1
DICPCG:  Solving for p, Initial residual = 8.69784e-05, Final residual = 4.18867e-06, No Iterations 5
DICPCG:  Solving for p, Initial residual = 1.92529e-05, Final residual = 9.93482e-07, No Iterations 432
time step continuity errors : sum local = 5.44455e-10, global = 1.08133e-11, cumulative = -7.78354e-08
DICPCG:  Solving for p, Initial residual = 3.12695e-05, Final residual = 1.53491e-06, No Iterations 4
DICPCG:  Solving for p, Initial residual = 6.16304e-06, Final residual = 9.6678e-07, No Iterations 2
time step continuity errors : sum local = 5.29617e-10, global = 7.71366e-11, cumulative = -7.77583e-08
DICPCG:  Solving for p, Initial residual = 7.73129e-06, Final residual = 9.7592e-07, No Iterations 2
DICPCG:  Solving for p, Initial residual = 2.64748e-06, Final residual = 7.8117e-07, No Iterations 1
time step continuity errors : sum local = 4.27937e-10, global = 8.50193e-11, cumulative = -7.76733e-08
smoothSolver:  Solving for omega, Initial residual = 9.17171e-06, Final residual = 9.17171e-06, No Iterations 0
smoothSolver:  Solving for k, Initial residual = 0.000784683, Final residual = 7.16901e-06, No Iterations 1
ExecutionTime = 2892.27 s  ClockTime = 2892 s

Courant Number mean: 0.156611 max: 10.0143
deltaT = 0.0010689
Time = 0.99038

PIMPLE: iteration 1
smoothSolver:  Solving for Ux, Initial residual = 0.000715379, Final residual = 6.50869e-06, No Iterations 1
smoothSolver:  Solving for Uy, Initial residual = 0.000718829, Final residual = 6.54966e-06, No Iterations 1
smoothSolver:  Solving for Uz, Initial residual = 2.33676e-05, Final residual = 1.49733e-07, No Iterations 1
DICPCG:  Solving for p, Initial residual = 8.64884e-05, Final residual = 4.14164e-06, No Iterations 5
DICPCG:  Solving for p, Initial residual = 1.90814e-05, Final residual = 9.69619e-07, No Iterations 262
time step continuity errors : sum local = 5.31126e-10, global = 1.23559e-11, cumulative = -7.76609e-08
DICPCG:  Solving for p, Initial residual = 3.03041e-05, Final residual = 1.43714e-06, No Iterations 4
DICPCG:  Solving for p, Initial residual = 5.88382e-06, Final residual = 9.21282e-07, No Iterations 2
time step continuity errors : sum local = 5.04666e-10, global = 7.54296e-11, cumulative = -7.75855e-08
DICPCG:  Solving for p, Initial residual = 7.55047e-06, Final residual = 9.49429e-07, No Iterations 2
DICPCG:  Solving for p, Initial residual = 2.54753e-06, Final residual = 7.65676e-07, No Iterations 1
time step continuity errors : sum local = 4.19427e-10, global = 8.26572e-11, cumulative = -7.75028e-08
smoothSolver:  Solving for omega, Initial residual = 9.66075e-06, Final residual = 9.66075e-06, No Iterations 0
smoothSolver:  Solving for k, Initial residual = 0.000784622, Final residual = 7.1805e-06, No Iterations 1
ExecutionTime = 2894.28 s  ClockTime = 2894 s

Courant Number mean: 0.15661 max: 10.0143
deltaT = 0.0010689
Time = 0.991449

PIMPLE: iteration 1
smoothSolver:  Solving for Ux, Initial residual = 0.000716604, Final residual = 6.51657e-06, No Iterations 1
smoothSolver:  Solving for Uy, Initial residual = 0.000720356, Final residual = 6.56983e-06, No Iterations 1
smoothSolver:  Solving for Uz, Initial residual = 2.31907e-05, Final residual = 1.48631e-07, No Iterations 1
DICPCG:  Solving for p, Initial residual = 8.67625e-05, Final residual = 4.14616e-06, No Iterations 5
DICPCG:  Solving for p, Initial residual = 1.90763e-05, Final residual = 9.61171e-07, No Iterations 90
time step continuity errors : sum local = 5.26468e-10, global = 1.38138e-11, cumulative = -7.7489e-08
DICPCG:  Solving for p, Initial residual = 2.9635e-05, Final residual = 1.12984e-06, No Iterations 5
DICPCG:  Solving for p, Initial residual = 5.82988e-06, Final residual = 9.14725e-07, No Iterations 2
time step continuity errors : sum local = 5.01028e-10, global = 7.00557e-11, cumulative = -7.74189e-08
DICPCG:  Solving for p, Initial residual = 7.64311e-06, Final residual = 9.00432e-07, No Iterations 2
DICPCG:  Solving for p, Initial residual = 2.57315e-06, Final residual = 7.83114e-07, No Iterations 1
time step continuity errors : sum local = 4.2894e-10, global = 7.99816e-11, cumulative = -7.7339e-08
smoothSolver:  Solving for omega, Initial residual = 1.01197e-05, Final residual = 9.35245e-08, No Iterations 1
smoothSolver:  Solving for k, Initial residual = 0.000771932, Final residual = 7.03878e-06, No Iterations 1
ExecutionTime = 2895.56 s  ClockTime = 2895 s

Courant Number mean: 0.156609 max: 10.0143
deltaT = 0.0010689
Time = 0.992518

PIMPLE: iteration 1
smoothSolver:  Solving for Ux, Initial residual = 0.000720421, Final residual = 8.22652e-06, No Iterations 1
smoothSolver:  Solving for Uy, Initial residual = 0.000723412, Final residual = 8.16181e-06, No Iterations 1
smoothSolver:  Solving for Uz, Initial residual = 2.30274e-05, Final residual = 1.47729e-07, No Iterations 1
DICPCG:  Solving for p, Initial residual = 9.12854e-05, Final residual = 4.30616e-06, No Iterations 5
DICPCG:  Solving for p, Initial residual = 1.95133e-05, Final residual = 9.91153e-07, No Iterations 97
time step continuity errors : sum local = 5.42845e-10, global = -9.21628e-12, cumulative = -7.73482e-08
DICPCG:  Solving for p, Initial residual = 3.08786e-05, Final residual = 1.37663e-06, No Iterations 4
DICPCG:  Solving for p, Initial residual = 5.87307e-06, Final residual = 8.88055e-07, No Iterations 2
time step continuity errors : sum local = 4.86381e-10, global = 5.37413e-11, cumulative = -7.72944e-08
DICPCG:  Solving for p, Initial residual = 8.27469e-06, Final residual = 9.69856e-07, No Iterations 2
DICPCG:  Solving for p, Initial residual = 2.64143e-06, Final residual = 7.81255e-07, No Iterations 1
time step continuity errors : sum local = 4.27887e-10, global = 5.93736e-11, cumulative = -7.72351e-08
smoothSolver:  Solving for omega, Initial residual = 3.24056e-06, Final residual = 3.24056e-06, No Iterations 0
smoothSolver:  Solving for k, Initial residual = 0.000771526, Final residual = 7.05345e-06, No Iterations 1
ExecutionTime = 2896.86 s  ClockTime = 2896 s

Courant Number mean: 0.156608 max: 10.0143
deltaT = 0.0010689
Time = 0.993587

PIMPLE: iteration 1
smoothSolver:  Solving for Ux, Initial residual = 0.000720311, Final residual = 7.52267e-06, No Iterations 1
smoothSolver:  Solving for Uy, Initial residual = 0.000723605, Final residual = 7.51652e-06, No Iterations 1
smoothSolver:  Solving for Uz, Initial residual = 2.28615e-05, Final residual = 1.46577e-07, No Iterations 1
DICPCG:  Solving for p, Initial residual = 8.77889e-05, Final residual = 3.88048e-06, No Iterations 5
DICPCG:  Solving for p, Initial residual = 1.8904e-05, Final residual = 9.86783e-07, No Iterations 109
time step continuity errors : sum local = 5.40403e-10, global = -3.18824e-11, cumulative = -7.72669e-08
DICPCG:  Solving for p, Initial residual = 2.96341e-05, Final residual = 1.45924e-06, No Iterations 4
DICPCG:  Solving for p, Initial residual = 5.97917e-06, Final residual = 9.51818e-07, No Iterations 2
time step continuity errors : sum local = 5.21253e-10, global = 3.50218e-11, cumulative = -7.72319e-08
DICPCG:  Solving for p, Initial residual = 7.90786e-06, Final residual = 9.4028e-07, No Iterations 3
DICPCG:  Solving for p, Initial residual = 2.77939e-06, Final residual = 7.97079e-07, No Iterations 1
time step continuity errors : sum local = 4.36511e-10, global = 3.60771e-11, cumulative = -7.71958e-08
smoothSolver:  Solving for omega, Initial residual = 3.13651e-06, Final residual = 3.13651e-06, No Iterations 0
smoothSolver:  Solving for k, Initial residual = 0.00077211, Final residual = 7.0581e-06, No Iterations 1
ExecutionTime = 2898.2 s  ClockTime = 2898 s

Courant Number mean: 0.156607 max: 10.0143
deltaT = 0.0010689
Time = 0.994655

PIMPLE: iteration 1
smoothSolver:  Solving for Ux, Initial residual = 0.000719643, Final residual = 7.22788e-06, No Iterations 1
smoothSolver:  Solving for Uy, Initial residual = 0.000722389, Final residual = 7.16655e-06, No Iterations 1
smoothSolver:  Solving for Uz, Initial residual = 2.26987e-05, Final residual = 1.45651e-07, No Iterations 1
DICPCG:  Solving for p, Initial residual = 8.66781e-05, Final residual = 3.94201e-06, No Iterations 5
DICPCG:  Solving for p, Initial residual = 1.89701e-05, Final residual = 9.68019e-07, No Iterations 49
time step continuity errors : sum local = 5.30079e-10, global = -2.39996e-11, cumulative = -7.72198e-08
DICPCG:  Solving for p, Initial residual = 2.92968e-05, Final residual = 1.44634e-06, No Iterations 4
DICPCG:  Solving for p, Initial residual = 5.8022e-06, Final residual = 9.52821e-07, No Iterations 2
time step continuity errors : sum local = 5.21756e-10, global = 4.71305e-11, cumulative = -7.71727e-08
DICPCG:  Solving for p, Initial residual = 7.61039e-06, Final residual = 9.64166e-07, No Iterations 3
DICPCG:  Solving for p, Initial residual = 2.70261e-06, Final residual = 8.16646e-07, No Iterations 1
time step continuity errors : sum local = 4.47188e-10, global = 4.92115e-11, cumulative = -7.71235e-08
smoothSolver:  Solving for omega, Initial residual = 2.93321e-06, Final residual = 2.93321e-06, No Iterations 0
smoothSolver:  Solving for k, Initial residual = 0.000771952, Final residual = 7.06643e-06, No Iterations 1
ExecutionTime = 2899.3 s  ClockTime = 2899 s

Courant Number mean: 0.156606 max: 10.0143
deltaT = 0.0010689
Time = 0.995724

PIMPLE: iteration 1
smoothSolver:  Solving for Ux, Initial residual = 0.000718969, Final residual = 6.81921e-06, No Iterations 1
smoothSolver:  Solving for Uy, Initial residual = 0.000722063, Final residual = 6.82998e-06, No Iterations 1
smoothSolver:  Solving for Uz, Initial residual = 2.25383e-05, Final residual = 1.44761e-07, No Iterations 1
DICPCG:  Solving for p, Initial residual = 8.65853e-05, Final residual = 3.95541e-06, No Iterations 5
DICPCG:  Solving for p, Initial residual = 1.88179e-05, Final residual = 9.99967e-07, No Iterations 522
time step continuity errors : sum local = 5.47522e-10, global = -1.61386e-11, cumulative = -7.71396e-08
DICPCG:  Solving for p, Initial residual = 3.05163e-05, Final residual = 1.43695e-06, No Iterations 4
DICPCG:  Solving for p, Initial residual = 6.03276e-06, Final residual = 8.81775e-07, No Iterations 2
time step continuity errors : sum local = 4.8265e-10, global = 4.49023e-11, cumulative = -7.70947e-08
DICPCG:  Solving for p, Initial residual = 7.66715e-06, Final residual = 9.342e-07, No Iterations 2
DICPCG:  Solving for p, Initial residual = 2.61281e-06, Final residual = 7.22507e-07, No Iterations 1
time step continuity errors : sum local = 3.95473e-10, global = 5.12193e-11, cumulative = -7.70435e-08
smoothSolver:  Solving for omega, Initial residual = 2.67445e-06, Final residual = 2.67445e-06, No Iterations 0
smoothSolver:  Solving for k, Initial residual = 0.000772551, Final residual = 7.0762e-06, No Iterations 1
ExecutionTime = 2902.47 s  ClockTime = 2902 s

Courant Number mean: 0.156604 max: 10.0143
deltaT = 0.0010689
Time = 0.996793

PIMPLE: iteration 1
smoothSolver:  Solving for Ux, Initial residual = 0.000718754, Final residual = 6.67373e-06, No Iterations 1
smoothSolver:  Solving for Uy, Initial residual = 0.000721207, Final residual = 6.64903e-06, No Iterations 1
smoothSolver:  Solving for Uz, Initial residual = 2.23881e-05, Final residual = 1.43913e-07, No Iterations 1
DICPCG:  Solving for p, Initial residual = 8.6017e-05, Final residual = 3.88683e-06, No Iterations 5
DICPCG:  Solving for p, Initial residual = 1.86628e-05, Final residual = 9.90191e-07, No Iterations 61
time step continuity errors : sum local = 5.41946e-10, global = 3.61179e-11, cumulative = -7.70074e-08
DICPCG:  Solving for p, Initial residual = 2.91557e-05, Final residual = 1.12268e-06, No Iterations 5
DICPCG:  Solving for p, Initial residual = 5.60785e-06, Final residual = 9.11499e-07, No Iterations 2
time step continuity errors : sum local = 4.98877e-10, global = 1.00847e-10, cumulative = -7.69066e-08
DICPCG:  Solving for p, Initial residual = 7.48415e-06, Final residual = 9.18502e-07, No Iterations 2
DICPCG:  Solving for p, Initial residual = 2.50922e-06, Final residual = 8.02261e-07, No Iterations 1
time step continuity errors : sum local = 4.39089e-10, global = 1.137e-10, cumulative = -7.67929e-08
smoothSolver:  Solving for omega, Initial residual = 2.63366e-06, Final residual = 2.63366e-06, No Iterations 0
smoothSolver:  Solving for k, Initial residual = 0.000772422, Final residual = 7.08053e-06, No Iterations 1
ExecutionTime = 2903.63 s  ClockTime = 2903 s

Courant Number mean: 0.156603 max: 10.0143
deltaT = 0.0010689
Time = 0.997862

PIMPLE: iteration 1
smoothSolver:  Solving for Ux, Initial residual = 0.000719394, Final residual = 6.51351e-06, No Iterations 1
smoothSolver:  Solving for Uy, Initial residual = 0.000722417, Final residual = 6.56206e-06, No Iterations 1
smoothSolver:  Solving for Uz, Initial residual = 2.22292e-05, Final residual = 1.43061e-07, No Iterations 1
DICPCG:  Solving for p, Initial residual = 8.67903e-05, Final residual = 4.01071e-06, No Iterations 5
DICPCG:  Solving for p, Initial residual = 1.88381e-05, Final residual = 9.66557e-07, No Iterations 248
time step continuity errors : sum local = 5.28961e-10, global = 2.18155e-11, cumulative = -7.6771e-08
DICPCG:  Solving for p, Initial residual = 3.08752e-05, Final residual = 1.45934e-06, No Iterations 4
DICPCG:  Solving for p, Initial residual = 6.08904e-06, Final residual = 9.1788e-07, No Iterations 2
time step continuity errors : sum local = 5.02332e-10, global = 5.97942e-11, cumulative = -7.67112e-08
DICPCG:  Solving for p, Initial residual = 7.67117e-06, Final residual = 9.53214e-07, No Iterations 2
DICPCG:  Solving for p, Initial residual = 2.63579e-06, Final residual = 7.71102e-07, No Iterations 1
time step continuity errors : sum local = 4.22004e-10, global = 5.84597e-11, cumulative = -7.66528e-08
smoothSolver:  Solving for omega, Initial residual = 2.96517e-06, Final residual = 2.96517e-06, No Iterations 0
smoothSolver:  Solving for k, Initial residual = 0.000772947, Final residual = 7.08116e-06, No Iterations 1
ExecutionTime = 2905.57 s  ClockTime = 2905 s

Courant Number mean: 0.156602 max: 10.0143
deltaT = 0.0010689
Time = 0.998931

PIMPLE: iteration 1
smoothSolver:  Solving for Ux, Initial residual = 0.000719193, Final residual = 6.44731e-06, No Iterations 1
smoothSolver:  Solving for Uy, Initial residual = 0.000721712, Final residual = 6.47244e-06, No Iterations 1
smoothSolver:  Solving for Uz, Initial residual = 2.20695e-05, Final residual = 1.42134e-07, No Iterations 1
DICPCG:  Solving for p, Initial residual = 8.66158e-05, Final residual = 3.91194e-06, No Iterations 5
DICPCG:  Solving for p, Initial residual = 1.87412e-05, Final residual = 9.91445e-07, No Iterations 173
time step continuity errors : sum local = 5.42543e-10, global = -1.03181e-11, cumulative = -7.66631e-08
DICPCG:  Solving for p, Initial residual = 3.00643e-05, Final residual = 1.41694e-06, No Iterations 4
DICPCG:  Solving for p, Initial residual = 5.86031e-06, Final residual = 9.22994e-07, No Iterations 2
time step continuity errors : sum local = 5.05089e-10, global = 6.38226e-11, cumulative = -7.65993e-08
DICPCG:  Solving for p, Initial residual = 7.4924e-06, Final residual = 9.70499e-07, No Iterations 2
DICPCG:  Solving for p, Initial residual = 2.58117e-06, Final residual = 7.84977e-07, No Iterations 1
time step continuity errors : sum local = 4.29562e-10, global = 7.4832e-11, cumulative = -7.65245e-08
smoothSolver:  Solving for omega, Initial residual = 3.31908e-06, Final residual = 3.31908e-06, No Iterations 0
smoothSolver:  Solving for k, Initial residual = 0.000772793, Final residual = 7.09652e-06, No Iterations 1
ExecutionTime = 2907.19 s  ClockTime = 2907 s

Courant Number mean: 0.156601 max: 10.0143
deltaT = 0.0010689
Time = 1

PIMPLE: iteration 1
smoothSolver:  Solving for Ux, Initial residual = 0.000719963, Final residual = 6.3618e-06, No Iterations 1
smoothSolver:  Solving for Uy, Initial residual = 0.000723038, Final residual = 6.42518e-06, No Iterations 1
smoothSolver:  Solving for Uz, Initial residual = 2.1902e-05, Final residual = 1.41186e-07, No Iterations 1
DICPCG:  Solving for p, Initial residual = 8.63184e-05, Final residual = 3.83864e-06, No Iterations 5
DICPCG:  Solving for p, Initial residual = 1.86743e-05, Final residual = 9.90308e-07, No Iterations 75
time step continuity errors : sum local = 5.41875e-10, global = -3.01953e-11, cumulative = -7.65546e-08
DICPCG:  Solving for p, Initial residual = 2.90459e-05, Final residual = 1.07817e-06, No Iterations 5
DICPCG:  Solving for p, Initial residual = 5.7799e-06, Final residual = 8.53846e-07, No Iterations 2
time step continuity errors : sum local = 4.67204e-10, global = 4.4196e-12, cumulative = -7.65502e-08
DICPCG:  Solving for p, Initial residual = 7.54351e-06, Final residual = 8.57661e-07, No Iterations 2
DICPCG:  Solving for p, Initial residual = 2.54213e-06, Final residual = 7.4309e-07, No Iterations 1
time step continuity errors : sum local = 4.066e-10, global = 6.57965e-12, cumulative = -7.65436e-08
smoothSolver:  Solving for omega, Initial residual = 3.6624e-06, Final residual = 3.6624e-06, No Iterations 0
smoothSolver:  Solving for k, Initial residual = 0.000773339, Final residual = 7.09743e-06, No Iterations 1
ExecutionTime = 2908.71 s  ClockTime = 2908 s

End

Finalising parallel run
